
Actelion Java MolfileCreator 2.0

  0  0  0  0  0  0              0 V3000
M  V30 BEGIN CTAB
M  V30 COUNTS 32 34 0 0 0
M  V30 BEGIN ATOM
M  V30 1 O 1.732 -1.5 0 0
M  V30 2 C 1.732 -0.5 0 0
M  V30 3 N 2.598 0 0 0
M  V30 4 C 3.4641 -0.5 0 0
M  V30 5 C 3.4641 -1.5 0 0
M  V30 6 C 4.3301 -2 0 0
M  V30 7 C 5.1961 -1.5 0 0
M  V30 8 O 6.0621 -2 0 0
M  V30 9 C 6.9282 -1.5 0 0
M  V30 10 C 7.7942 -2 0 0
M  V30 11 C 8.6602 -1.5 0 0
M  V30 12 N 8.6602 -0.5 0 0
M  V30 13 C 7.7942 0 0 0
M  V30 14 C 6.9282 -0.5 0 0
M  V30 15 C 7.7942 0.9999 0 0
M  V30 16 O 6.9282 1.4999 0 0
M  V30 17 N 8.6602 1.4999 0 0
M  V30 18 C 8.6602 2.4999 0 0
M  V30 19 C 5.1961 -0.5 0 0
M  V30 20 C 4.3301 0 0 0
M  V30 21 N 0.866 0 0 0
M  V30 22 C 0 -0.5 0 0
M  V30 23 C -0.866 0 0 0
M  V30 24 C -1.732 -0.4999 0 0
M  V30 25 C -1.732 -1.4999 0 0
M  V30 26 Cl -2.598 -1.9999 0 0
M  V30 27 C -0.866 -1.9999 0 0
M  V30 28 C 0 -1.4999 0 0
M  V30 29 C -0.866 -2.9999 0 0
M  V30 30 F 0.1339 -2.9999 0 0
M  V30 31 F -0.866 -3.9999 0 0
M  V30 32 F -1.866 -2.9999 0 0
M  V30 END ATOM
M  V30 BEGIN BOND
M  V30 1 2 1 2
M  V30 2 1 2 3
M  V30 3 1 3 4
M  V30 4 2 4 5
M  V30 5 1 5 6
M  V30 6 2 6 7
M  V30 7 1 7 8
M  V30 8 1 8 9
M  V30 9 1 9 10
M  V30 10 2 10 11
M  V30 11 1 11 12
M  V30 12 2 12 13
M  V30 13 1 13 14
M  V30 14 2 9 14
M  V30 15 1 13 15
M  V30 16 2 15 16
M  V30 17 1 15 17
M  V30 18 1 17 18
M  V30 19 1 7 19
M  V30 20 2 19 20
M  V30 21 1 4 20
M  V30 22 1 2 21
M  V30 23 1 21 22
M  V30 24 2 22 23
M  V30 25 1 23 24
M  V30 26 2 24 25
M  V30 27 1 25 26
M  V30 28 1 25 27
M  V30 29 2 27 28
M  V30 30 1 22 28
M  V30 31 1 27 29
M  V30 32 1 29 30
M  V30 33 1 29 31
M  V30 34 1 29 32
M  V30 END BOND
M  V30 END CTAB
M  END
> <coconut_id> 
CNP0272310

> <SMILES> 
O=C(NC1=CC=C(OC=2C=CN=C(C2)C(=O)NC)C=C1)NC3=CC=C(Cl)C(=C3)C(F)(F)F

$$$$

Actelion Java MolfileCreator 2.0

  0  0  0  0  0  0              0 V3000
M  V30 BEGIN CTAB
M  V30 COUNTS 33 35 0 0 0
M  V30 BEGIN ATOM
M  V30 1 O 1.732 -1.5 0 0
M  V30 2 C 1.732 -0.5 0 0
M  V30 3 N 2.598 0 0 0
M  V30 4 C 3.4641 -0.5 0 0
M  V30 5 C 3.4641 -1.5 0 0
M  V30 6 C 4.3301 -2 0 0
M  V30 7 C 5.1961 -1.5 0 0
M  V30 8 Cl 6.0621 -2 0 0
M  V30 9 C 5.1961 -0.5 0 0
M  V30 10 C 4.3301 0 0 0
M  V30 11 C 6.0621 0 0 0
M  V30 12 F 5.5621 0.866 0 0
M  V30 13 F 6.9282 0.4999 0 0
M  V30 14 F 6.5621 -0.866 0 0
M  V30 15 N 0.866 0 0 0
M  V30 16 C 0 -0.5 0 0
M  V30 17 C -0.866 0 0 0
M  V30 18 C -1.732 -0.4999 0 0
M  V30 19 C -1.732 -1.4999 0 0
M  V30 20 O -2.598 -1.9999 0 0
M  V30 21 C -2.598 -2.9999 0 0
M  V30 22 C -3.4641 -3.4999 0 0
M  V30 23 C -3.4641 -4.4999 0 0
M  V30 24 N -2.598 -4.9999 0 0
M  V30 25 C -1.732 -4.4999 0 0
M  V30 26 C -1.732 -3.4999 0 0
M  V30 27 C -0.866 -4.9999 0 0
M  V30 28 O 0 -4.4999 0 0
M  V30 29 N -0.866 -5.9999 0 0
M  V30 30 C 0 -6.4999 0 0
M  V30 31 C -0.866 -1.9999 0 0
M  V30 32 C 0 -1.4999 0 0
M  V30 33 F 0.866 -2 0 0
M  V30 END ATOM
M  V30 BEGIN BOND
M  V30 1 2 1 2
M  V30 2 1 2 3
M  V30 3 1 3 4
M  V30 4 2 4 5
M  V30 5 1 5 6
M  V30 6 2 6 7
M  V30 7 1 7 8
M  V30 8 1 7 9
M  V30 9 2 9 10
M  V30 10 1 4 10
M  V30 11 1 9 11
M  V30 12 1 11 12
M  V30 13 1 11 13
M  V30 14 1 11 14
M  V30 15 1 2 15
M  V30 16 1 15 16
M  V30 17 2 16 17
M  V30 18 1 17 18
M  V30 19 2 18 19
M  V30 20 1 19 20
M  V30 21 1 20 21
M  V30 22 1 21 22
M  V30 23 2 22 23
M  V30 24 1 23 24
M  V30 25 2 24 25
M  V30 26 1 25 26
M  V30 27 2 21 26
M  V30 28 1 25 27
M  V30 29 2 27 28
M  V30 30 1 27 29
M  V30 31 1 29 30
M  V30 32 1 19 31
M  V30 33 2 31 32
M  V30 34 1 16 32
M  V30 35 1 32 33
M  V30 END BOND
M  V30 END CTAB
M  END
> <coconut_id> 
CNP0444813

> <SMILES> 
O=C(NC1=CC=C(Cl)C(=C1)C(F)(F)F)NC2=CC=C(OC=3C=CN=C(C3)C(=O)NC)C=C2F

$$$$

Actelion Java MolfileCreator 2.0

  0  0  0  0  0  0              0 V3000
M  V30 BEGIN CTAB
M  V30 COUNTS 30 32 0 0 0
M  V30 BEGIN ATOM
M  V30 1 O 3.4641 -4.4999 0 0
M  V30 2 C 4.3301 -4.9999 0 0
M  V30 3 N 4.3301 -5.9999 0 0
M  V30 4 C 5.1961 -6.5 0 0
M  V30 5 C 5.1961 -4.4999 0 0
M  V30 6 N 6.0621 -4.9999 0 0
M  V30 7 C 6.9282 -4.5 0 0
M  V30 8 C 6.9282 -3.5 0 0
M  V30 9 C 6.0621 -3 0 0
M  V30 10 O 6.0621 -1.9999 0 0
M  V30 11 C 5.1961 -1.4999 0 0
M  V30 12 C 5.1961 -0.5 0 0
M  V30 13 C 4.3301 0 0 0
M  V30 14 C 3.4641 -0.5 0 0
M  V30 15 N 2.598 0 0 0
M  V30 16 C 1.732 -0.5 0 0
M  V30 17 S 1.732 -1.5 0 0
M  V30 18 N 0.866 0 0 0
M  V30 19 C 0 -0.5 0 0
M  V30 20 C -0.866 0 0 0
M  V30 21 C -1.732 -0.4999 0 0
M  V30 22 C -1.732 -1.4999 0 0
M  V30 23 Cl -2.598 -1.9999 0 0
M  V30 24 C -0.866 -1.9999 0 0
M  V30 25 C 0 -1.4999 0 0
M  V30 26 C -0.866 -2.9999 0 0
M  V30 27 C 3.4641 -1.5 0 0
M  V30 28 N 2.598 -2 0 0
M  V30 29 C 4.3301 -1.9999 0 0
M  V30 30 C 5.1961 -3.5 0 0
M  V30 END ATOM
M  V30 BEGIN BOND
M  V30 1 2 1 2
M  V30 2 1 2 3
M  V30 3 1 3 4
M  V30 4 1 2 5
M  V30 5 2 5 6
M  V30 6 1 6 7
M  V30 7 2 7 8
M  V30 8 1 8 9
M  V30 9 1 9 10
M  V30 10 1 10 11
M  V30 11 2 11 12
M  V30 12 1 12 13
M  V30 13 2 13 14
M  V30 14 1 14 15
M  V30 15 1 15 16
M  V30 16 2 16 17
M  V30 17 1 16 18
M  V30 18 1 18 19
M  V30 19 2 19 20
M  V30 20 1 20 21
M  V30 21 2 21 22
M  V30 22 1 22 23
M  V30 23 1 22 24
M  V30 24 2 24 25
M  V30 25 1 19 25
M  V30 26 1 24 26
M  V30 27 1 14 27
M  V30 28 1 27 28
M  V30 29 2 27 29
M  V30 30 1 11 29
M  V30 31 2 9 30
M  V30 32 1 5 30
M  V30 END BOND
M  V30 END CTAB
M  END
> <coconut_id> 
CNP0243075

> <SMILES> 
O=C(NC)C1=NC=CC(OC2=CC=C(NC(=S)NC3=CC=C(Cl)C(=C3)C)C(N)=C2)=C1

$$$$

Actelion Java MolfileCreator 2.0

  0  0  0  0  0  0              0 V3000
M  V30 BEGIN CTAB
M  V30 COUNTS 32 35 0 0 0
M  V30 BEGIN ATOM
M  V30 1 O 3.8971 0 0 0
M  V30 2 C 2.598 -0.75 0 0
M  V30 3 N 1.299 0 0 0
M  V30 4 C 0 -0.75 0 0
M  V30 5 C -1.299 0 0 0
M  V30 6 C -2.598 -0.75 0 0
M  V30 7 N -2.598 -2.2499 0 0
M  V30 8 C -3.7127 -3.2536 0 0
M  V30 9 O -5.18 -2.9418 0 0
M  V30 10 N -3.1026 -4.624 0 0
M  V30 11 C -1.6109 -4.4672 0 0
M  V30 12 O -0.6072 -5.5819 0 0
M  V30 13 C -1.299 -3 0 0
M  V30 14 C 0 -2.2499 0 0
M  V30 15 C -3.8526 -5.923 0 0
M  V30 16 C -5.3526 -5.923 0 0
M  V30 17 C -6.1026 -7.222 0 0
M  V30 18 C -5.3526 -8.5211 0 0
M  V30 19 O -6.1026 -9.8201 0 0
M  V30 20 C -5.3526 -11.1192 0 0
M  V30 21 F -4.0536 -10.3692 0 0
M  V30 22 F -4.6026 -12.4182 0 0
M  V30 23 F -6.6517 -11.8692 0 0
M  V30 24 C -3.8526 -8.5211 0 0
M  V30 25 C -3.1026 -7.222 0 0
M  V30 26 C 2.598 -2.25 0 0
M  V30 27 C 1.299 -3 0 0
M  V30 28 C 1.299 -4.5 0 0
M  V30 29 N 2.598 -5.25 0 0
M  V30 30 C 3.8971 -4.5 0 0
M  V30 31 Cl 5.1961 -5.25 0 0
M  V30 32 C 3.8971 -3 0 0
M  V30 END ATOM
M  V30 BEGIN BOND
M  V30 1 2 1 2
M  V30 2 1 2 3
M  V30 3 1 3 4
M  V30 4 1 4 5
M  V30 5 1 5 6
M  V30 6 1 6 7
M  V30 7 1 7 8
M  V30 8 2 8 9
M  V30 9 1 8 10
M  V30 10 1 10 11
M  V30 11 2 11 12
M  V30 12 1 11 13
M  V30 13 1 7 13
M  V30 14 1 13 14
M  V30 15 1 4 14
M  V30 16 1 10 15
M  V30 17 2 15 16
M  V30 18 1 16 17
M  V30 19 2 17 18
M  V30 20 1 18 19
M  V30 21 1 19 20
M  V30 22 1 20 21
M  V30 23 1 20 22
M  V30 24 1 20 23
M  V30 25 1 18 24
M  V30 26 2 24 25
M  V30 27 1 15 25
M  V30 28 1 2 26
M  V30 29 1 26 27
M  V30 30 2 27 28
M  V30 31 1 28 29
M  V30 32 2 29 30
M  V30 33 1 30 31
M  V30 34 1 30 32
M  V30 35 2 26 32
M  V30 END BOND
M  V30 END CTAB
M  END
> <coconut_id> 
CNP0177507

> <SMILES> 
O=C(NC1CCN2C(=O)N(C(=O)C2C1)C3=CC=C(OC(F)(F)F)C=C3)C=4C=CN=C(Cl)C4

$$$$

Actelion Java MolfileCreator 2.0

  0  0  0  0  0  0              0 V3000
M  V30 BEGIN CTAB
M  V30 COUNTS 34 36 0 0 0
M  V30 BEGIN ATOM
M  V30 1 O 1.732 -1.5 0 0
M  V30 2 C 1.732 -0.5 0 0
M  V30 3 N 2.598 0 0 0
M  V30 4 C 3.4641 -0.5 0 0
M  V30 5 O 3.4641 -1.5 0 0
M  V30 6 C 4.3301 0 0 0
M  V30 7 C 4.3301 1 0 0
M  V30 8 F 3.4641 1.4999 0 0
M  V30 9 C 5.1961 1.5 0 0
M  V30 10 C 6.0621 1 0 0
M  V30 11 C 6.0621 0 0 0
M  V30 12 C 5.1961 -0.4999 0 0
M  V30 13 F 5.1961 -1.4999 0 0
M  V30 14 N 0.866 0 0 0
M  V30 15 C 0 -0.5 0 0
M  V30 16 C -0.866 0 0 0
M  V30 17 C -1.732 -0.4999 0 0
M  V30 18 Cl -2.598 0 0 0
M  V30 19 C -1.732 -1.4999 0 0
M  V30 20 O -2.598 -1.9999 0 0
M  V30 21 C -2.598 -2.9999 0 0
M  V30 22 N -1.732 -3.4999 0 0
M  V30 23 C -1.732 -4.4999 0 0
M  V30 24 C -2.598 -4.9999 0 0
M  V30 25 C -3.4641 -4.4999 0 0
M  V30 26 C -3.4641 -3.4999 0 0
M  V30 27 Cl -4.3301 -2.9999 0 0
M  V30 28 C -2.598 -5.9999 0 0
M  V30 29 F -3.598 -5.9999 0 0
M  V30 30 F -2.598 -6.9999 0 0
M  V30 31 F -1.598 -5.9999 0 0
M  V30 32 C -0.866 -1.9999 0 0
M  V30 33 Cl -0.866 -2.9999 0 0
M  V30 34 C 0 -1.4999 0 0
M  V30 END ATOM
M  V30 BEGIN BOND
M  V30 1 2 1 2
M  V30 2 1 2 3
M  V30 3 1 3 4
M  V30 4 2 4 5
M  V30 5 1 4 6
M  V30 6 1 6 7
M  V30 7 1 7 8
M  V30 8 2 7 9
M  V30 9 1 9 10
M  V30 10 2 10 11
M  V30 11 1 11 12
M  V30 12 2 6 12
M  V30 13 1 12 13
M  V30 14 1 2 14
M  V30 15 1 14 15
M  V30 16 2 15 16
M  V30 17 1 16 17
M  V30 18 1 17 18
M  V30 19 2 17 19
M  V30 20 1 19 20
M  V30 21 1 20 21
M  V30 22 2 21 22
M  V30 23 1 22 23
M  V30 24 2 23 24
M  V30 25 1 24 25
M  V30 26 2 25 26
M  V30 27 1 21 26
M  V30 28 1 26 27
M  V30 29 1 24 28
M  V30 30 1 28 29
M  V30 31 1 28 30
M  V30 32 1 28 31
M  V30 33 1 19 32
M  V30 34 1 32 33
M  V30 35 2 32 34
M  V30 36 1 15 34
M  V30 END BOND
M  V30 END CTAB
M  END
> <coconut_id> 
CNP0348103

> <SMILES> 
O=C(NC(=O)C=1C(F)=CC=CC1F)NC2=CC(Cl)=C(OC3=NC=C(C=C3Cl)C(F)(F)F)C(Cl)=C2

$$$$

Actelion Java MolfileCreator 2.0

  0  0  0  0  0  0              0 V3000
M  V30 BEGIN CTAB
M  V30 COUNTS 29 32 0 0 0
M  V30 BEGIN ATOM
M  V30 1 O 2.598 0 0 0
M  V30 2 C 1.732 -0.5 0 0
M  V30 3 N 0.866 0 0 0
M  V30 4 C 0 -0.5 0 0
M  V30 5 C -0.866 0 0 0
M  V30 6 C -1.732 -0.4999 0 0
M  V30 7 N -1.732 -1.4999 0 0
M  V30 8 C -2.4751 -2.1691 0 0
M  V30 9 O -3.4533 -1.9612 0 0
M  V30 10 N -2.0684 -3.0826 0 0
M  V30 11 C -1.0739 -2.9781 0 0
M  V30 12 O -0.4048 -3.7212 0 0
M  V30 13 C -0.866 -1.9999 0 0
M  V30 14 C 0 -1.4999 0 0
M  V30 15 C -2.5684 -3.9487 0 0
M  V30 16 C -3.5684 -3.9487 0 0
M  V30 17 C -4.0684 -4.8147 0 0
M  V30 18 C -3.5684 -5.6807 0 0
M  V30 19 C -2.5684 -5.6807 0 0
M  V30 20 O -2.0684 -6.5467 0 0
M  V30 21 C -1.0684 -6.5467 0 0
M  V30 22 C -2.0684 -4.8147 0 0
M  V30 23 C 1.732 -1.5 0 0
M  V30 24 C 0.866 -1.9999 0 0
M  V30 25 C 0.866 -2.9999 0 0
M  V30 26 N 1.732 -3.5 0 0
M  V30 27 C 2.598 -3 0 0
M  V30 28 Cl 3.4641 -3.5 0 0
M  V30 29 C 2.598 -2 0 0
M  V30 END ATOM
M  V30 BEGIN BOND
M  V30 1 2 1 2
M  V30 2 1 2 3
M  V30 3 1 3 4
M  V30 4 1 4 5
M  V30 5 1 5 6
M  V30 6 1 6 7
M  V30 7 1 7 8
M  V30 8 2 8 9
M  V30 9 1 8 10
M  V30 10 1 10 11
M  V30 11 2 11 12
M  V30 12 1 11 13
M  V30 13 1 7 13
M  V30 14 1 13 14
M  V30 15 1 4 14
M  V30 16 1 10 15
M  V30 17 1 15 16
M  V30 18 2 16 17
M  V30 19 1 17 18
M  V30 20 2 18 19
M  V30 21 1 19 20
M  V30 22 1 20 21
M  V30 23 1 19 22
M  V30 24 2 15 22
M  V30 25 1 2 23
M  V30 26 1 23 24
M  V30 27 2 24 25
M  V30 28 1 25 26
M  V30 29 2 26 27
M  V30 30 1 27 28
M  V30 31 1 27 29
M  V30 32 2 23 29
M  V30 END BOND
M  V30 END CTAB
M  END
> <coconut_id> 
CNP0124659

> <SMILES> 
O=C(NC1CCN2C(=O)N(C(=O)C2C1)C=3C=CC=C(OC)C3)C=4C=CN=C(Cl)C4

$$$$

Actelion Java MolfileCreator 2.0

  0  0  0  0  0  0              0 V3000
M  V30 BEGIN CTAB
M  V30 COUNTS 31 34 0 0 0
M  V30 BEGIN ATOM
M  V30 1 O 3.8971 0 0 0
M  V30 2 C 2.598 -0.75 0 0
M  V30 3 N 1.299 0 0 0
M  V30 4 C 0 -0.75 0 0
M  V30 5 C -1.299 0 0 0
M  V30 6 C -2.598 -0.75 0 0
M  V30 7 N -2.598 -2.2499 0 0
M  V30 8 C -3.7127 -3.2536 0 0
M  V30 9 O -5.18 -2.9418 0 0
M  V30 10 N -3.1026 -4.624 0 0
M  V30 11 C -1.6109 -4.4672 0 0
M  V30 12 O -0.6072 -5.5819 0 0
M  V30 13 C -1.299 -3 0 0
M  V30 14 C 0 -2.2499 0 0
M  V30 15 C -3.8526 -5.923 0 0
M  V30 16 C -5.3526 -5.923 0 0
M  V30 17 C -6.1026 -7.222 0 0
M  V30 18 C -5.3526 -8.5211 0 0
M  V30 19 O -6.1026 -9.8201 0 0
M  V30 20 C -5.3526 -11.1192 0 0
M  V30 21 F -4.0536 -10.3692 0 0
M  V30 22 F -4.6026 -12.4182 0 0
M  V30 23 F -6.6517 -11.8692 0 0
M  V30 24 C -3.8526 -8.5211 0 0
M  V30 25 C -3.1026 -7.222 0 0
M  V30 26 C 2.598 -2.25 0 0
M  V30 27 C 1.299 -3 0 0
M  V30 28 C 1.299 -4.5 0 0
M  V30 29 N 2.598 -5.25 0 0
M  V30 30 C 3.8971 -4.5 0 0
M  V30 31 C 3.8971 -3 0 0
M  V30 END ATOM
M  V30 BEGIN BOND
M  V30 1 2 1 2
M  V30 2 1 2 3
M  V30 3 1 3 4
M  V30 4 1 4 5
M  V30 5 1 5 6
M  V30 6 1 6 7
M  V30 7 1 7 8
M  V30 8 2 8 9
M  V30 9 1 8 10
M  V30 10 1 10 11
M  V30 11 2 11 12
M  V30 12 1 11 13
M  V30 13 1 7 13
M  V30 14 1 13 14
M  V30 15 1 4 14
M  V30 16 1 10 15
M  V30 17 2 15 16
M  V30 18 1 16 17
M  V30 19 2 17 18
M  V30 20 1 18 19
M  V30 21 1 19 20
M  V30 22 1 20 21
M  V30 23 1 20 22
M  V30 24 1 20 23
M  V30 25 1 18 24
M  V30 26 2 24 25
M  V30 27 1 15 25
M  V30 28 1 2 26
M  V30 29 1 26 27
M  V30 30 2 27 28
M  V30 31 1 28 29
M  V30 32 2 29 30
M  V30 33 1 30 31
M  V30 34 2 26 31
M  V30 END BOND
M  V30 END CTAB
M  END
> <coconut_id> 
CNP0070194

> <SMILES> 
O=C(NC1CCN2C(=O)N(C(=O)C2C1)C3=CC=C(OC(F)(F)F)C=C3)C=4C=CN=CC4

$$$$

Actelion Java MolfileCreator 2.0

  0  0  0  0  0  0              0 V3000
M  V30 BEGIN CTAB
M  V30 COUNTS 27 30 0 0 0
M  V30 BEGIN ATOM
M  V30 1 O 5.1961 -1.5 0 0
M  V30 2 C 5.1961 -0.5 0 0
M  V30 3 C 6.0621 0 0 0
M  V30 4 C 6.0621 0.9999 0 0
M  V30 5 O 5.1961 1.4999 0 0
M  V30 6 C 4.3301 0.9999 0 0
M  V30 7 C 3.4641 1.4999 0 0
M  V30 8 C 2.598 0.9999 0 0
M  V30 9 C 2.598 0 0 0
M  V30 10 C 3.4641 -0.5 0 0
M  V30 11 C 4.3301 0 0 0
M  V30 12 N 1.732 -0.5 0 0
M  V30 13 C 0.866 0 0 0
M  V30 14 O 0.866 1 0 0
M  V30 15 C 0 -0.5 0 0
M  V30 16 C -0.866 0 0 0
M  V30 17 C -1.732 -0.4999 0 0
M  V30 18 N -1.732 -1.4999 0 0
M  V30 19 C -0.866 -1.9999 0 0
M  V30 20 C 0 -1.4999 0 0
M  V30 21 C 6.9282 1.4999 0 0
M  V30 22 C 7.7942 0.9999 0 0
M  V30 23 C 8.6602 1.4999 0 0
M  V30 24 C 8.6602 2.4999 0 0
M  V30 25 C 7.7942 2.9999 0 0
M  V30 26 C 6.9282 2.4999 0 0
M  V30 27 Cl 6.0621 2.9999 0 0
M  V30 END ATOM
M  V30 BEGIN BOND
M  V30 1 2 1 2
M  V30 2 1 2 3
M  V30 3 2 3 4
M  V30 4 1 4 5
M  V30 5 1 5 6
M  V30 6 2 6 7
M  V30 7 1 7 8
M  V30 8 2 8 9
M  V30 9 1 9 10
M  V30 10 2 10 11
M  V30 11 1 2 11
M  V30 12 1 6 11
M  V30 13 1 9 12
M  V30 14 1 12 13
M  V30 15 2 13 14
M  V30 16 1 13 15
M  V30 17 1 15 16
M  V30 18 2 16 17
M  V30 19 1 17 18
M  V30 20 2 18 19
M  V30 21 1 19 20
M  V30 22 2 15 20
M  V30 23 1 4 21
M  V30 24 1 21 22
M  V30 25 2 22 23
M  V30 26 1 23 24
M  V30 27 2 24 25
M  V30 28 1 25 26
M  V30 29 2 21 26
M  V30 30 1 26 27
M  V30 END BOND
M  V30 END CTAB
M  END
> <coconut_id> 
CNP0370783

> <SMILES> 
O=C1C=C(OC2=CC=C(C=C12)NC(=O)C=3C=CN=CC3)C=4C=CC=CC4Cl

$$$$
