REMARK SMILES Cc1cc(NC(=O)c2ccc(Br)cc2)n[nH]1
REMARK SMILES IDX 6 1 7 2 5 3 8 5 12 6 11 7 10 8 13 9 9 10 14 11 4 12 15 13
REMARK SMILES IDX 3 14 16 15 2 16 1 18
REMARK H PARENT 5 4 16 17
REMARK Flexibility Score: inf
ROOT
ATOM      1  C   UNL     1      -0.505   0.423   0.491  1.00  0.00     0.256 C 
ATOM      2  O   UNL     1       0.002   1.224   1.269  1.00  0.00    -0.269 OA
ATOM      3  N   UNL     1       0.167  -0.417  -0.365  1.00  0.00    -0.305 N 
ATOM      4  H   UNL     1      -0.311  -1.123  -0.903  1.00  0.00     0.171 HD
ENDROOT
BRANCH   1   5
ATOM      5  C   UNL     1      -1.991   0.297   0.465  1.00  0.00     0.040 A 
ATOM      6  Br  UNL     1      -6.663  -0.035   0.531  1.00  0.00    -0.051 Br
ATOM      7  C   UNL     1      -4.778   0.102   0.505  1.00  0.00     0.018 A 
ATOM      8  C   UNL     1      -4.094   0.451   1.668  1.00  0.00     0.016 A 
ATOM      9  C   UNL     1      -4.084  -0.139  -0.680  1.00  0.00     0.016 A 
ATOM     10  C   UNL     1      -2.701   0.554   1.646  1.00  0.00     0.015 A 
ATOM     11  C   UNL     1      -2.689  -0.038  -0.704  1.00  0.00     0.015 A 
ENDBRANCH   1   5
BRANCH   3  12
ATOM     12  C   UNL     1       1.530  -0.465  -0.526  1.00  0.00     0.154 A 
ATOM     13  N   UNL     1       2.040  -1.366  -1.368  1.00  0.00    -0.157 NA
ATOM     14  C   UNL     1       2.541   0.318   0.069  1.00  0.00     0.071 A 
ATOM     15  N   UNL     1       3.366  -1.161  -1.304  1.00  0.00    -0.281 N 
ATOM     16  C   UNL     1       3.725  -0.155  -0.453  1.00  0.00     0.034 A 
ATOM     17  H   UNL     1       3.971  -1.747  -1.871  1.00  0.00     0.190 HD
ATOM     18  C   UNL     1       5.133   0.238  -0.233  1.00  0.00     0.066 C 
ENDBRANCH   3  12
TORSDOF 2
