REMARK SMILES Cc1ccc(S(=O)(=O)Nc2ccccc2CNc2cnc3ccccc3c2)cc1
REMARK SMILES IDX 10 1 15 2 14 3 13 4 12 5 11 6 9 7 6 9 7 10 8 11 5 12 1 13
REMARK SMILES IDX 2 14 3 15 29 16 4 17 28 18 16 19 17 20 18 22 19 23 27 24
REMARK SMILES IDX 20 25 26 26 21 27 25 28 22 29 24 30 23 31
REMARK H PARENT 9 8 17 21
REMARK Flexibility Score: inf
ROOT
ATOM      1  C   UNL     1       1.561  -2.817   1.288  1.00  0.00     0.054 A 
ATOM      2  C   UNL     1       0.240  -2.551   0.873  1.00  0.00    -0.005 A 
ATOM      3  C   UNL     1      -0.215  -3.157  -0.314  1.00  0.00     0.008 A 
ATOM      4  C   UNL     1       0.617  -3.983  -1.072  1.00  0.00     0.001 A 
ATOM      5  C   UNL     1       1.916  -4.234  -0.650  1.00  0.00     0.002 A 
ATOM      6  C   UNL     1       2.383  -3.659   0.530  1.00  0.00     0.027 A 
ENDROOT
BRANCH   1   7
ATOM      7  N   UNL     1       2.073  -2.255   2.494  1.00  0.00    -0.279 N 
ATOM      8  H   UNL     1       1.467  -2.115   3.297  1.00  0.00     0.180 HD
BRANCH   7   9
ATOM      9  S   UNL     1       3.428  -1.255   2.495  1.00  0.00     0.261 S 
ATOM     10  O   UNL     1       3.478  -0.676   3.822  1.00  0.00    -0.201 OA
ATOM     11  O   UNL     1       4.563  -1.965   1.949  1.00  0.00    -0.201 OA
BRANCH   9  12
ATOM     12  C   UNL     1       2.979   0.037   1.362  1.00  0.00     0.087 A 
ATOM     13  C   UNL     1       1.934   3.170  -1.383  1.00  0.00     0.044 C 
ATOM     14  C   UNL     1       2.318   2.091  -0.413  1.00  0.00    -0.051 A 
ATOM     15  C   UNL     1       1.978   2.192   0.943  1.00  0.00     0.005 A 
ATOM     16  C   UNL     1       2.996   0.953  -0.870  1.00  0.00     0.005 A 
ATOM     17  C   UNL     1       2.315   1.172   1.835  1.00  0.00     0.022 A 
ATOM     18  C   UNL     1       3.336  -0.071   0.015  1.00  0.00     0.022 A 
ENDBRANCH   9  12
ENDBRANCH   7   9
ENDBRANCH   1   7
BRANCH   2  19
ATOM     19  C   UNL     1      -0.668  -1.666   1.702  1.00  0.00     0.151 C 
BRANCH  19  20
ATOM     20  N   UNL     1      -1.972  -1.390   1.098  1.00  0.00    -0.380 N 
ATOM     21  H   UNL     1      -2.732  -1.505   1.762  1.00  0.00     0.160 HD
BRANCH  20  22
ATOM     22  C   UNL     1      -2.151  -0.257   0.297  1.00  0.00     0.054 A 
ATOM     23  C   UNL     1      -1.147   0.395  -0.414  1.00  0.00     0.137 A 
ATOM     24  C   UNL     1      -3.449   0.199   0.053  1.00  0.00     0.037 A 
ATOM     25  N   UNL     1      -1.332   1.458  -1.239  1.00  0.00    -0.254 NA
ATOM     26  C   UNL     1      -3.690   1.292  -0.796  1.00  0.00     0.002 A 
ATOM     27  C   UNL     1      -2.584   1.900  -1.421  1.00  0.00     0.070 A 
ATOM     28  C   UNL     1      -4.989   1.780  -1.030  1.00  0.00     0.010 A 
ATOM     29  C   UNL     1      -2.813   2.984  -2.257  1.00  0.00     0.029 A 
ATOM     30  C   UNL     1      -5.192   2.870  -1.874  1.00  0.00     0.001 A 
ATOM     31  C   UNL     1      -4.101   3.475  -2.488  1.00  0.00     0.002 A 
ENDBRANCH  20  22
ENDBRANCH  19  20
ENDBRANCH   2  19
TORSDOF 6
