REMARK SMILES CS(=O)(=O)N(CC(=O)Nc1ccccc1C(=O)N1CCOCC1)c1ccc(Cl)cc1
REMARK SMILES IDX 9 1 7 2 8 3 10 5 15 6 14 7 13 8 11 9 12 10 16 11 18 12 19 13
REMARK SMILES IDX 23 14 20 15 17 16 22 17 21 18 6 19 5 20 24 21 25 22 30 23
REMARK SMILES IDX 26 24 29 25 27 26 28 27 2 28 3 29 4 30 1 31
REMARK H PARENT 9 4
REMARK Flexibility Score: inf
ROOT
ATOM      1  N   UNL     1      -0.082   0.218   0.903  1.00  0.00    -0.324 N 
ATOM      2  C   UNL     1       1.300   0.094   0.938  1.00  0.00     0.245 C 
ATOM      3  O   UNL     1       1.952  -0.388   1.859  1.00  0.00    -0.273 OA
ATOM      4  H   UNL     1      -0.474   0.767   0.138  1.00  0.00     0.170 HD
ENDROOT
BRANCH   1   5
ATOM      5  C   UNL     1      -1.028  -0.154   1.891  1.00  0.00     0.054 A 
ATOM      6  C   UNL     1      -2.383   0.202   1.708  1.00  0.00     0.063 A 
ATOM      7  C   UNL     1      -3.324  -0.051   2.720  1.00  0.00     0.016 A 
ATOM      8  C   UNL     1      -2.946  -0.725   3.879  1.00  0.00     0.001 A 
ATOM      9  C   UNL     1      -0.675  -0.848   3.052  1.00  0.00     0.027 A 
ATOM     10  C   UNL     1      -1.627  -1.135   4.036  1.00  0.00     0.002 A 
BRANCH   6  11
ATOM     11  C   UNL     1      -2.818   0.924   0.477  1.00  0.00     0.256 C 
ATOM     12  N   UNL     1      -4.066   0.633  -0.088  1.00  0.00    -0.334 N 
ATOM     13  C   UNL     1      -4.539  -0.754  -0.201  1.00  0.00     0.148 C 
ATOM     14  C   UNL     1      -4.476   1.469  -1.221  1.00  0.00     0.148 C 
ATOM     15  C   UNL     1      -6.036  -0.806  -0.522  1.00  0.00     0.181 C 
ATOM     16  O   UNL     1      -2.054   1.765  -0.001  1.00  0.00    -0.269 OA
ATOM     17  C   UNL     1      -5.971   1.336  -1.510  1.00  0.00     0.181 C 
ATOM     18  O   UNL     1      -6.340  -0.036  -1.695  1.00  0.00    -0.378 OA
ENDBRANCH   6  11
ENDBRANCH   1   5
BRANCH   2  19
ATOM     19  C   UNL     1       1.977   0.689  -0.295  1.00  0.00     0.235 C 
BRANCH  19  20
ATOM     20  N   UNL     1       3.112  -0.095  -0.853  1.00  0.00    -0.261 N 
BRANCH  20  21
ATOM     21  C   UNL     1       4.428   0.301  -0.438  1.00  0.00     0.052 A 
ATOM     22  C   UNL     1       4.978  -0.082   0.788  1.00  0.00     0.028 A 
ATOM     23  C   UNL     1       5.122   1.197  -1.259  1.00  0.00     0.028 A 
ATOM     24  C   UNL     1       6.231   0.395   1.173  1.00  0.00     0.022 A 
ATOM     25  C   UNL     1       6.378   1.674  -0.876  1.00  0.00     0.022 A 
ATOM     26  C   UNL     1       6.930   1.268   0.338  1.00  0.00     0.041 A 
ATOM     27  Cl  UNL     1       8.475   1.861   0.812  1.00  0.00    -0.084 Cl
ENDBRANCH  20  21
BRANCH  20  28
ATOM     28  S   UNL     1       2.808  -1.751  -1.108  1.00  0.00     0.232 S 
ATOM     29  O   UNL     1       1.396  -1.891  -1.412  1.00  0.00    -0.207 OA
ATOM     30  O   UNL     1       3.439  -2.556  -0.083  1.00  0.00    -0.207 OA
ATOM     31  C   UNL     1       3.687  -2.016  -2.634  1.00  0.00     0.183 C 
ENDBRANCH  20  28
ENDBRANCH  19  20
ENDBRANCH   2  19
TORSDOF 6
