REMARK SMILES COc1cc(OC)c(NC(=O)CSc2nnc(-c3ccccc3)n2C)cc1Cl
REMARK SMILES IDX 12 1 13 2 14 3 25 4 24 5 17 6 15 7 16 8 18 9 19 10 23 11
REMARK SMILES IDX 20 12 22 13 21 14 10 15 11 16 9 17 8 19 26 20 5 21 27 22
REMARK SMILES IDX 4 23 28 24 3 25 6 26 7 27 2 28 1 29
REMARK H PARENT 9 18
REMARK Flexibility Score: inf
ROOT
ATOM      1  C   UNL     1      -0.049  -2.193   3.009  1.00  0.00     0.178 C 
ENDROOT
BRANCH   1   2
ATOM      2  S   UNL     1      -0.945  -0.636   3.300  1.00  0.00    -0.076 SA
BRANCH   2   3
ATOM      3  C   UNL     1      -1.591  -0.351   1.720  1.00  0.00     0.191 A 
ATOM      4  C   UNL     1      -3.692   0.862   2.384  1.00  0.00     0.154 C 
ATOM      5  N   UNL     1      -2.749   0.318   1.444  1.00  0.00    -0.305 N 
ATOM      6  C   UNL     1      -2.883   0.278   0.068  1.00  0.00     0.164 A 
ATOM      7  N   UNL     1      -1.040  -0.774   0.607  1.00  0.00    -0.123 NA
ATOM      8  N   UNL     1      -1.855  -0.397  -0.425  1.00  0.00    -0.129 NA
BRANCH   6   9
ATOM      9  C   UNL     1      -3.992   0.792  -0.730  1.00  0.00     0.019 A 
ATOM     10  C   UNL     1      -4.526  -0.023  -1.740  1.00  0.00     0.012 A 
ATOM     11  C   UNL     1      -4.517   2.074  -0.554  1.00  0.00     0.012 A 
ATOM     12  C   UNL     1      -5.587   0.418  -2.528  1.00  0.00     0.001 A 
ATOM     13  C   UNL     1      -5.581   2.516  -1.346  1.00  0.00     0.001 A 
ATOM     14  C   UNL     1      -6.118   1.686  -2.327  1.00  0.00     0.000 A 
ENDBRANCH   6   9
ENDBRANCH   2   3
ENDBRANCH   1   2
BRANCH   1  15
ATOM     15  C   UNL     1       1.431  -1.977   2.707  1.00  0.00     0.234 C 
ATOM     16  O   UNL     1       2.295  -2.497   3.421  1.00  0.00    -0.274 OA
ATOM     17  N   UNL     1       1.672  -1.238   1.567  1.00  0.00    -0.322 N 
ATOM     18  H   UNL     1       0.875  -0.802   1.109  1.00  0.00     0.170 HD
BRANCH  17  19
ATOM     19  C   UNL     1       2.911  -0.961   0.950  1.00  0.00     0.085 A 
ATOM     20  C   UNL     1       4.121  -1.532   1.336  1.00  0.00     0.054 A 
ATOM     21  C   UNL     1       2.902  -0.074  -0.141  1.00  0.00     0.146 A 
ATOM     22  C   UNL     1       5.299  -1.216   0.644  1.00  0.00     0.085 A 
ATOM     23  C   UNL     1       4.080   0.269  -0.812  1.00  0.00     0.096 A 
ATOM     24  Cl  UNL     1       6.759  -1.981   1.157  1.00  0.00    -0.080 Cl
ATOM     25  C   UNL     1       5.293  -0.314  -0.435  1.00  0.00     0.141 A 
BRANCH  21  26
ATOM     26  O   UNL     1       1.715   0.539  -0.482  1.00  0.00    -0.494 OA
ATOM     27  C   UNL     1       1.234   0.080  -1.748  1.00  0.00     0.278 C 
ENDBRANCH  21  26
BRANCH  25  28
ATOM     28  O   UNL     1       6.496  -0.064  -1.045  1.00  0.00    -0.495 OA
ATOM     29  C   UNL     1       6.506   0.834  -2.150  1.00  0.00     0.278 C 
ENDBRANCH  25  28
ENDBRANCH  17  19
ENDBRANCH   1  15
TORSDOF 7
