REMARK SMILES CCOc1ccc2nc(SCC(=O)Nc3c(C)n(C)n(-c4ccccc4)c3=O)sc2c1
REMARK SMILES IDX 11 1 10 2 9 3 4 4 5 5 31 6 6 7 30 8 7 9 29 10 8 11 3 12 2 13
REMARK SMILES IDX 1 14 12 15 13 16 14 17 15 19 16 20 27 21 18 22 17 23 20 24
REMARK SMILES IDX 28 25 19 26 21 27 22 28 26 29 23 30 25 31 24 32
REMARK H PARENT 14 18
REMARK Flexibility Score: inf
ROOT
ATOM      1  C   UNL     1       0.587  -1.380  -0.317  1.00  0.00     0.177 C 
ENDROOT
BRANCH   1   2
ATOM      2  S   UNL     1       1.305  -0.209   0.874  1.00  0.00    -0.086 SA
BRANCH   2   3
ATOM      3  C   UNL     1       2.996  -0.332   0.439  1.00  0.00     0.151 A 
ATOM      4  C   UNL     1       7.565  -0.628  -0.722  1.00  0.00     0.120 A 
ATOM      5  C   UNL     1       6.917  -1.160  -1.837  1.00  0.00     0.049 A 
ATOM      6  C   UNL     1       6.819  -0.168   0.367  1.00  0.00     0.067 A 
ATOM      7  C   UNL     1       5.522  -1.256  -1.891  1.00  0.00     0.034 A 
ATOM      8  C   UNL     1       5.416  -0.267   0.304  1.00  0.00     0.059 A 
ATOM      9  C   UNL     1       4.755  -0.802  -0.802  1.00  0.00     0.083 A 
ATOM     10  S   UNL     1       4.244   0.211   1.474  1.00  0.00    -0.108 S 
ATOM     11  N   UNL     1       3.373  -0.830  -0.714  1.00  0.00    -0.230 NA
BRANCH   4  12
ATOM     12  O   UNL     1       8.928  -0.601  -0.829  1.00  0.00    -0.494 OA
BRANCH  12  13
ATOM     13  C   UNL     1       9.706  -0.218   0.305  1.00  0.00     0.226 C 
ATOM     14  C   UNL     1       9.940   1.283   0.316  1.00  0.00     0.049 C 
ENDBRANCH  12  13
ENDBRANCH   4  12
ENDBRANCH   2   3
ENDBRANCH   1   2
BRANCH   1  15
ATOM     15  C   UNL     1      -0.923  -1.461  -0.150  1.00  0.00     0.235 C 
ATOM     16  O   UNL     1      -1.480  -2.549  -0.052  1.00  0.00    -0.274 OA
ATOM     17  N   UNL     1      -1.557  -0.235  -0.256  1.00  0.00    -0.319 N 
ATOM     18  H   UNL     1      -0.979   0.531  -0.577  1.00  0.00     0.170 HD
BRANCH  17  19
ATOM     19  C   UNL     1      -2.886   0.034  -0.062  1.00  0.00     0.130 C 
ATOM     20  C   UNL     1      -3.539   1.146  -0.451  1.00  0.00     0.061 C 
ATOM     21  C   UNL     1      -3.904  -0.791   0.680  1.00  0.00     0.295 C 
ATOM     22  N   UNL     1      -4.897   1.145  -0.098  1.00  0.00    -0.283 N 
ATOM     23  C   UNL     1      -2.975   2.305  -1.211  1.00  0.00     0.069 C 
ATOM     24  N   UNL     1      -5.124  -0.109   0.538  1.00  0.00    -0.216 N 
ATOM     25  O   UNL     1      -3.677  -1.819   1.295  1.00  0.00    -0.265 OA
ATOM     26  C   UNL     1      -5.402   2.295   0.675  1.00  0.00     0.172 C 
BRANCH  24  27
ATOM     27  C   UNL     1      -6.421  -0.683   0.616  1.00  0.00     0.067 A 
ATOM     28  C   UNL     1      -7.508  -0.114  -0.067  1.00  0.00     0.028 A 
ATOM     29  C   UNL     1      -6.654  -1.847   1.361  1.00  0.00     0.028 A 
ATOM     30  C   UNL     1      -8.786  -0.678   0.006  1.00  0.00     0.002 A 
ATOM     31  C   UNL     1      -7.932  -2.413   1.436  1.00  0.00     0.002 A 
ATOM     32  C   UNL     1      -8.998  -1.827   0.761  1.00  0.00     0.000 A 
ENDBRANCH  24  27
ENDBRANCH  17  19
ENDBRANCH   1  15
TORSDOF 7
