REMARK SMILES Cn1c(COc2cccc3cccnc23)nnc1SCC(N)=O
REMARK SMILES IDX 2 1 1 2 3 3 16 4 17 5 18 6 4 7 5 8 6 9 7 10 15 11 8 12 10 13
REMARK SMILES IDX 14 14 9 15 11 16 13 17 12 18 19 19 20 20 21 21 23 22 22 23
REMARK H PARENT 22 24 22 25
REMARK Flexibility Score: inf
ROOT
ATOM      1  N   UNL     1       1.708  -0.306  -1.007  1.00  0.00    -0.306 N 
ATOM      2  C   UNL     1       1.077  -1.074  -2.050  1.00  0.00     0.154 C 
ATOM      3  C   UNL     1       1.193  -0.036   0.245  1.00  0.00     0.171 A 
ATOM      4  N   UNL     1       2.096   0.636   0.935  1.00  0.00    -0.131 NA
ATOM      5  N   UNL     1       3.176   0.858   0.126  1.00  0.00    -0.123 NA
ATOM      6  C   UNL     1       2.929   0.304  -1.036  1.00  0.00     0.191 A 
ENDROOT
BRANCH   3   7
ATOM      7  C   UNL     1      -0.132  -0.478   0.775  1.00  0.00     0.307 C 
BRANCH   7   8
ATOM      8  O   UNL     1      -1.096  -0.414  -0.283  1.00  0.00    -0.483 OA
BRANCH   8   9
ATOM      9  C   UNL     1      -2.355  -0.709   0.199  1.00  0.00     0.146 A 
ATOM     10  C   UNL     1      -2.866  -1.976  -0.124  1.00  0.00     0.049 A 
ATOM     11  C   UNL     1      -3.096   0.242   0.916  1.00  0.00     0.112 A 
ATOM     12  C   UNL     1      -4.135  -2.336   0.310  1.00  0.00     0.005 A 
ATOM     13  C   UNL     1      -4.383  -0.142   1.351  1.00  0.00     0.004 A 
ATOM     14  N   UNL     1      -2.601   1.474   1.181  1.00  0.00    -0.252 NA
ATOM     15  C   UNL     1      -4.890  -1.423   1.050  1.00  0.00     0.010 A 
ATOM     16  C   UNL     1      -5.141   0.788   2.083  1.00  0.00     0.012 A 
ATOM     17  C   UNL     1      -3.360   2.343   1.884  1.00  0.00     0.112 A 
ATOM     18  C   UNL     1      -4.622   2.049   2.357  1.00  0.00     0.021 A 
ENDBRANCH   8   9
ENDBRANCH   7   8
ENDBRANCH   3   7
BRANCH   6  19
ATOM     19  S   UNL     1       3.991   0.315  -2.403  1.00  0.00    -0.076 SA
BRANCH  19  20
ATOM     20  C   UNL     1       5.413   1.230  -1.732  1.00  0.00     0.177 C 
BRANCH  20  21
ATOM     21  C   UNL     1       6.200   0.362  -0.766  1.00  0.00     0.227 C 
ATOM     22  O   UNL     1       7.003  -0.496  -1.121  1.00  0.00    -0.274 OA
ATOM     23  N   UNL     1       5.959   0.578   0.565  1.00  0.00    -0.369 N 
ATOM     24  H   UNL     1       5.014   0.871   0.817  1.00  0.00     0.159 HD
ATOM     25  H   UNL     1       6.370  -0.111   1.183  1.00  0.00     0.159 HD
ENDBRANCH  20  21
ENDBRANCH  19  20
ENDBRANCH   6  19
TORSDOF 6
