REMARK SMILES CN1CCN(C(=O)CN(c2cc(C(F)(F)F)ccc2Cl)S(=O)(=O)c2ccccc2)CC1
REMARK SMILES IDX 9 1 10 2 12 3 11 4 17 5 18 6 19 7 20 8 13 9 14 10 15 11
REMARK SMILES IDX 16 12 8 13 6 14 7 15 5 16 4 17 30 18 3 19 31 20 2 21 1 22
REMARK SMILES IDX 21 23 22 24 23 25 24 26 25 27 29 28 26 29 28 30 27 31
REMARK H PARENT
REMARK Flexibility Score: inf
ROOT
ATOM      1  N   UNL     1      -0.831   0.622   0.549  1.00  0.00    -0.255 N 
ENDROOT
BRANCH   1   2
ATOM      2  C   UNL     1      -2.068   1.349   0.512  1.00  0.00     0.072 A 
ATOM      3  C   UNL     1      -3.439   3.072   1.578  1.00  0.00     0.058 A 
ATOM      4  C   UNL     1      -2.251   2.327   1.500  1.00  0.00     0.041 A 
ATOM      5  C   UNL     1      -4.450   2.828   0.639  1.00  0.00     0.015 A 
ATOM      6  C   UNL     1      -4.281   1.854  -0.348  1.00  0.00     0.023 A 
ATOM      7  C   UNL     1      -3.097   1.114  -0.415  1.00  0.00     0.065 A 
ATOM      8  Cl  UNL     1      -2.975  -0.065  -1.673  1.00  0.00    -0.082 Cl
BRANCH   3   9
ATOM      9  C   UNL     1      -3.597   4.135   2.640  1.00  0.00     0.416 C 
ATOM     10  F   UNL     1      -3.182   3.726   3.869  1.00  0.00    -0.166 F 
ATOM     11  F   UNL     1      -2.887   5.260   2.352  1.00  0.00    -0.166 F 
ATOM     12  F   UNL     1      -4.888   4.540   2.799  1.00  0.00    -0.166 F 
ENDBRANCH   3   9
ENDBRANCH   1   2
BRANCH   1  13
ATOM     13  C   UNL     1       0.039   0.595  -0.644  1.00  0.00     0.235 C 
BRANCH  13  14
ATOM     14  C   UNL     1       1.448   1.063  -0.267  1.00  0.00     0.243 C 
ATOM     15  O   UNL     1       1.611   1.985   0.539  1.00  0.00    -0.273 OA
ATOM     16  N   UNL     1       2.523   0.443  -0.885  1.00  0.00    -0.339 N 
ATOM     17  C   UNL     1       3.879   0.750  -0.424  1.00  0.00     0.135 C 
ATOM     18  C   UNL     1       2.421  -0.565  -1.944  1.00  0.00     0.135 C 
ATOM     19  C   UNL     1       4.813  -0.471  -0.527  1.00  0.00     0.105 C 
ATOM     20  C   UNL     1       3.740  -0.728  -2.720  1.00  0.00     0.105 C 
ATOM     21  N   UNL     1       4.875  -1.108  -1.861  1.00  0.00    -0.303 NA
ATOM     22  C   UNL     1       6.146  -0.845  -2.530  1.00  0.00     0.105 C 
ENDBRANCH  13  14
ENDBRANCH   1  13
BRANCH   1  23
ATOM     23  S   UNL     1      -0.650  -0.625   1.683  1.00  0.00     0.264 S 
ATOM     24  O   UNL     1      -1.209  -0.204   2.952  1.00  0.00    -0.201 OA
ATOM     25  O   UNL     1       0.703  -1.136   1.599  1.00  0.00    -0.201 OA
BRANCH  23  26
ATOM     26  C   UNL     1      -1.716  -1.911   1.056  1.00  0.00     0.088 A 
ATOM     27  C   UNL     1      -3.042  -1.983   1.495  1.00  0.00     0.022 A 
ATOM     28  C   UNL     1      -1.199  -2.878   0.188  1.00  0.00     0.022 A 
ATOM     29  C   UNL     1      -3.867  -3.004   1.024  1.00  0.00     0.001 A 
ATOM     30  C   UNL     1      -2.030  -3.896  -0.278  1.00  0.00     0.001 A 
ATOM     31  C   UNL     1      -3.363  -3.955   0.136  1.00  0.00     0.000 A 
ENDBRANCH  23  26
ENDBRANCH   1  23
TORSDOF 6
