REMARK SMILES CCn1c(SCC(=O)Nc2cccc(C(C)=O)c2)nnc1-c1ccncc1
REMARK SMILES IDX 6 1 7 2 9 3 8 5 10 6 18 7 11 8 14 9 12 10 13 11 15 12 17 13
REMARK SMILES IDX 16 14 5 15 4 16 19 17 3 18 20 19 21 20 2 21 1 22 22 23 23 24
REMARK SMILES IDX 27 25 24 26 26 27 25 28
REMARK H PARENT 9 4
REMARK Flexibility Score: inf
ROOT
ATOM      1  C   UNL     1       0.465  -3.592  -0.719  1.00  0.00     0.178 C 
ENDROOT
BRANCH   1   2
ATOM      2  C   UNL     1       1.846  -2.963  -0.881  1.00  0.00     0.234 C 
ATOM      3  N   UNL     1       1.999  -1.698  -0.358  1.00  0.00    -0.325 N 
ATOM      4  H   UNL     1       1.186  -1.311   0.102  1.00  0.00     0.169 HD
ATOM      5  O   UNL     1       2.720  -3.593  -1.476  1.00  0.00    -0.274 OA
BRANCH   3   6
ATOM      6  C   UNL     1       3.132  -0.865  -0.397  1.00  0.00     0.041 A 
ATOM      7  C   UNL     1       3.061   0.340   0.313  1.00  0.00     0.038 A 
ATOM      8  C   UNL     1       4.298  -1.163  -1.099  1.00  0.00     0.026 A 
ATOM      9  C   UNL     1       4.142   1.235   0.330  1.00  0.00     0.019 A 
ATOM     10  C   UNL     1       5.373  -0.270  -1.101  1.00  0.00     0.003 A 
ATOM     11  C   UNL     1       5.299   0.928  -0.390  1.00  0.00     0.012 A 
BRANCH   9  12
ATOM     12  C   UNL     1       4.008   2.488   1.129  1.00  0.00     0.159 C 
ATOM     13  O   UNL     1       2.982   2.697   1.772  1.00  0.00    -0.295 OA
ATOM     14  C   UNL     1       5.139   3.484   1.130  1.00  0.00     0.093 C 
ENDBRANCH   9  12
ENDBRANCH   3   6
ENDBRANCH   1   2
BRANCH   1  15
ATOM     15  S   UNL     1      -0.512  -2.974   0.687  1.00  0.00    -0.076 SA
BRANCH  15  16
ATOM     16  C   UNL     1      -1.342  -1.646  -0.045  1.00  0.00     0.191 A 
ATOM     17  N   UNL     1      -0.969  -1.048  -1.149  1.00  0.00    -0.123 NA
ATOM     18  N   UNL     1      -2.466  -1.048   0.457  1.00  0.00    -0.302 N 
ATOM     19  N   UNL     1      -1.887  -0.071  -1.418  1.00  0.00    -0.129 NA
ATOM     20  C   UNL     1      -2.787  -0.054  -0.449  1.00  0.00     0.164 A 
BRANCH  18  21
ATOM     21  C   UNL     1      -3.222  -1.448   1.626  1.00  0.00     0.123 C 
ATOM     22  C   UNL     1      -2.608  -0.945   2.921  1.00  0.00     0.028 C 
ENDBRANCH  18  21
BRANCH  20  23
ATOM     23  C   UNL     1      -3.949   0.824  -0.422  1.00  0.00     0.022 A 
ATOM     24  C   UNL     1      -4.792   0.867  -1.534  1.00  0.00     0.032 A 
ATOM     25  C   UNL     1      -4.221   1.662   0.659  1.00  0.00     0.032 A 
ATOM     26  C   UNL     1      -5.889   1.709  -1.501  1.00  0.00     0.111 A 
ATOM     27  C   UNL     1      -5.338   2.478   0.592  1.00  0.00     0.111 A 
ATOM     28  N   UNL     1      -6.184   2.510  -0.456  1.00  0.00    -0.265 NA
ENDBRANCH  20  23
ENDBRANCH  15  16
ENDBRANCH   1  15
TORSDOF 7
