REMARK SMILES COc1ccc(C(=O)CSc2nnc(-c3ccc(OC)c(OC)c3)n2-c2ccccc2)cc1
REMARK SMILES IDX 9 1 10 2 11 3 25 4 14 5 12 6 13 7 26 8 27 9 31 10 28 11
REMARK SMILES IDX 30 12 29 13 15 14 24 15 16 16 21 17 17 18 18 19 22 20 23 21
REMARK SMILES IDX 19 22 20 23 7 24 8 25 6 26 5 27 32 28 4 29 33 30 3 31 2 32
REMARK SMILES IDX 1 33
REMARK H PARENT
REMARK Flexibility Score: inf
ROOT
ATOM      1  C   UNL     1       2.910  -1.465  -1.261  1.00  0.00     0.159 C 
ENDROOT
BRANCH   1   2
ATOM      2  S   UNL     1       1.817  -1.557   0.186  1.00  0.00    -0.077 SA
BRANCH   2   3
ATOM      3  C   UNL     1       0.453  -0.649  -0.385  1.00  0.00     0.196 A 
ATOM      4  N   UNL     1      -0.842  -0.719   0.110  1.00  0.00    -0.270 N 
ATOM      5  C   UNL     1      -1.563   0.137  -0.730  1.00  0.00     0.169 A 
ATOM      6  N   UNL     1       0.499   0.125  -1.445  1.00  0.00    -0.122 NA
ATOM      7  N   UNL     1      -0.759   0.594  -1.676  1.00  0.00    -0.129 NA
BRANCH   4   8
ATOM      8  C   UNL     1      -1.351  -1.503   1.186  1.00  0.00     0.050 A 
ATOM      9  C   UNL     1      -2.603  -2.126   1.065  1.00  0.00     0.027 A 
ATOM     10  C   UNL     1      -0.622  -1.657   2.371  1.00  0.00     0.027 A 
ATOM     11  C   UNL     1      -3.109  -2.897   2.114  1.00  0.00     0.002 A 
ATOM     12  C   UNL     1      -1.134  -2.432   3.415  1.00  0.00     0.002 A 
ATOM     13  C   UNL     1      -2.374  -3.052   3.286  1.00  0.00     0.000 A 
ENDBRANCH   4   8
BRANCH   5  14
ATOM     14  C   UNL     1      -2.954   0.568  -0.584  1.00  0.00     0.024 A 
ATOM     15  C   UNL     1      -3.804   0.537  -1.694  1.00  0.00     0.062 A 
ATOM     16  C   UNL     1      -3.448   1.064   0.631  1.00  0.00     0.016 A 
ATOM     17  C   UNL     1      -5.126   0.977  -1.581  1.00  0.00     0.161 A 
ATOM     18  C   UNL     1      -4.780   1.486   0.746  1.00  0.00     0.051 A 
ATOM     19  C   UNL     1      -5.635   1.437  -0.357  1.00  0.00     0.160 A 
BRANCH  17  20
ATOM     20  O   UNL     1      -5.954   0.892  -2.673  1.00  0.00    -0.493 OA
ATOM     21  C   UNL     1      -5.681   1.955  -3.583  1.00  0.00     0.278 C 
ENDBRANCH  17  20
BRANCH  19  22
ATOM     22  O   UNL     1      -6.948   1.827  -0.356  1.00  0.00    -0.493 OA
ATOM     23  C   UNL     1      -7.520   2.183   0.896  1.00  0.00     0.278 C 
ENDBRANCH  19  22
ENDBRANCH   5  14
ENDBRANCH   2   3
ENDBRANCH   1   2
BRANCH   1  24
ATOM     24  C   UNL     1       4.252  -2.070  -0.911  1.00  0.00     0.173 C 
ATOM     25  O   UNL     1       4.436  -3.289  -0.944  1.00  0.00    -0.293 OA
BRANCH  24  26
ATOM     26  C   UNL     1       5.383  -1.175  -0.516  1.00  0.00     0.019 A 
ATOM     27  C   UNL     1       6.683  -1.693  -0.554  1.00  0.00     0.015 A 
ATOM     28  C   UNL     1       5.192   0.147  -0.098  1.00  0.00     0.015 A 
ATOM     29  C   UNL     1       7.773  -0.894  -0.198  1.00  0.00     0.047 A 
ATOM     30  C   UNL     1       6.288   0.943   0.262  1.00  0.00     0.047 A 
ATOM     31  C   UNL     1       7.583   0.427   0.210  1.00  0.00     0.118 A 
BRANCH  31  32
ATOM     32  O   UNL     1       8.731   1.096   0.531  1.00  0.00    -0.497 OA
ATOM     33  C   UNL     1       8.596   2.452   0.935  1.00  0.00     0.278 C 
ENDBRANCH  31  32
ENDBRANCH  24  26
ENDBRANCH   1  24
TORSDOF 9
