REMARK SMILES Cc1c(NC(=O)[C@@H]2CCCN2S(=O)(=O)c2ccccc2)c(=O)n(-c2ccccc2)n1C
REMARK SMILES IDX 7 1 11 2 10 3 9 4 8 5 5 6 4 7 6 9 3 10 23 11 30 12 21 13
REMARK SMILES IDX 2 14 31 15 22 16 1 17 24 18 25 19 29 20 26 21 28 22 27 23
REMARK SMILES IDX 12 24 13 25 14 26 15 27 16 28 20 29 17 30 19 31 18 32
REMARK H PARENT 4 8
REMARK Flexibility Score: inf
ROOT
ATOM      1  C   UNL     1       2.289  -2.220   0.910  1.00  0.00     0.162 C 
ATOM      2  N   UNL     1       3.508  -1.444   1.300  1.00  0.00    -0.185 NA
ATOM      3  C   UNL     1       4.295  -2.262   2.256  1.00  0.00     0.103 C 
ATOM      4  C   UNL     1       3.678  -3.649   2.196  1.00  0.00     0.019 C 
ATOM      5  C   UNL     1       2.217  -3.356   1.929  1.00  0.00     0.032 C 
ENDROOT
BRANCH   1   6
ATOM      6  C   UNL     1       1.028  -1.356   0.971  1.00  0.00     0.243 C 
ATOM      7  N   UNL     1       0.343  -1.316  -0.235  1.00  0.00    -0.319 N 
ATOM      8  H   UNL     1       0.859  -1.614  -1.049  1.00  0.00     0.170 HD
ATOM      9  O   UNL     1       0.726  -0.739   1.987  1.00  0.00    -0.273 OA
BRANCH   7  10
ATOM     10  C   UNL     1      -0.849  -0.679  -0.479  1.00  0.00     0.130 C 
ATOM     11  N   UNL     1      -2.867   0.440  -0.226  1.00  0.00    -0.216 N 
ATOM     12  N   UNL     1      -2.575   0.325  -1.614  1.00  0.00    -0.283 N 
ATOM     13  C   UNL     1      -1.902  -0.263   0.514  1.00  0.00     0.295 C 
ATOM     14  C   UNL     1      -1.348  -0.348  -1.687  1.00  0.00     0.061 C 
ATOM     15  C   UNL     1      -3.701  -0.193  -2.411  1.00  0.00     0.172 C 
ATOM     16  O   UNL     1      -1.907  -0.532   1.704  1.00  0.00    -0.265 OA
ATOM     17  C   UNL     1      -0.717  -0.584  -3.023  1.00  0.00     0.069 C 
BRANCH  11  18
ATOM     18  C   UNL     1      -3.730   1.450   0.276  1.00  0.00     0.067 A 
ATOM     19  C   UNL     1      -4.210   2.473  -0.557  1.00  0.00     0.028 A 
ATOM     20  C   UNL     1      -4.115   1.470   1.623  1.00  0.00     0.028 A 
ATOM     21  C   UNL     1      -5.064   3.466  -0.066  1.00  0.00     0.002 A 
ATOM     22  C   UNL     1      -4.968   2.463   2.116  1.00  0.00     0.002 A 
ATOM     23  C   UNL     1      -5.448   3.458   1.270  1.00  0.00     0.000 A 
ENDBRANCH  11  18
ENDBRANCH   7  10
ENDBRANCH   1   6
BRANCH   2  24
ATOM     24  S   UNL     1       4.385  -0.681   0.074  1.00  0.00     0.243 S 
ATOM     25  O   UNL     1       5.515  -0.002   0.666  1.00  0.00    -0.207 OA
ATOM     26  O   UNL     1       4.562  -1.662  -0.978  1.00  0.00    -0.207 OA
BRANCH  24  27
ATOM     27  C   UNL     1       3.283   0.569  -0.533  1.00  0.00     0.082 A 
ATOM     28  C   UNL     1       3.031   0.664  -1.906  1.00  0.00     0.022 A 
ATOM     29  C   UNL     1       2.668   1.440   0.370  1.00  0.00     0.022 A 
ATOM     30  C   UNL     1       2.144   1.632  -2.373  1.00  0.00     0.001 A 
ATOM     31  C   UNL     1       1.769   2.395  -0.106  1.00  0.00     0.001 A 
ATOM     32  C   UNL     1       1.509   2.491  -1.474  1.00  0.00     0.000 A 
ENDBRANCH  24  27
ENDBRANCH   2  24
TORSDOF 5
