MODEL 1
REMARK minimizedAffinity -11.6326056
REMARK minimizedRMSD -1
ROOT
REMARK  Name = Estrogen receptor pdbqt/ligands_pdbqt/5toa_ligand_A.pdb
REMARK                            x       y       z     vdW  Elec       q    Type
REMARK                         _______ _______ _______ _____ _____    ______ ____
ATOM      1  C1  EST A 601      18.889  43.317  12.763  0.00  0.00    -0.001 A 
ATOM      2  C2  EST A 601      18.429  42.445  11.780  0.00  0.00    +0.042 A 
ATOM      3  C3  EST A 601      18.674  41.076  11.854  0.00  0.00    +0.195 A 
ATOM      4  O3  EST A 601      18.209  40.252  10.876  0.00  0.00    -0.287 OA
ATOM      5  C4  EST A 601      19.390  40.538  12.917  0.00  0.00    +0.037 A 
ATOM      6  C5  EST A 601      19.871  41.363  13.925  0.00  0.00    -0.023 A 
ATOM      7  C6  EST A 601      20.648  40.760  15.073  0.00  0.00    +0.026 C 
ATOM      8  C7  EST A 601      21.454  41.837  15.786  0.00  0.00    +0.005 C 
ATOM      9  C8  EST A 601      20.543  42.999  16.142  0.00  0.00    +0.004 C 
ATOM     10  C9  EST A 601      20.108  43.752  14.892  0.00  0.00    +0.022 C 
ATOM     11  C10 EST A 601      19.604  42.825  13.848  0.00  0.00    -0.026 A 
ATOM     12  C11 EST A 601      19.103  44.850  15.259  0.00  0.00    +0.004 C 
ATOM     13  C12 EST A 601      19.709  45.836  16.264  0.00  0.00    +0.003 C 
ATOM     14  C13 EST A 601      20.251  45.085  17.473  0.00  0.00    +0.028 C 
ATOM     15  C14 EST A 601      21.234  44.030  17.015  0.00  0.00    +0.003 C 
ATOM     16  C15 EST A 601      21.925  43.562  18.285  0.00  0.00    +0.003 C 
ATOM     17  C16 EST A 601      21.948  44.818  19.161  0.00  0.00    +0.033 C 
ATOM     18  C17 EST A 601      21.100  45.877  18.451  0.00  0.00    +0.152 C 
ATOM     19  O17 EST A 601      20.288  46.587  19.389  0.00  0.00    -0.223 OA
ATOM     20  C18 EST A 601      19.098  44.448  18.244  0.00  0.00    +0.003 C 
ATOM     21  H   EST A 601      17.725  40.605  10.155  0.00  0.00    +0.000 HD
ATOM     22  H   EST A 601      19.724  45.959  19.869  0.00  0.00    +0.000 HD
ENDROOT
TORSDOF 0
TER 
ENDMDL
