MODEL 2
REMARK minimizedAffinity -10.2588215
REMARK minimizedRMSD -1
ROOT
REMARK  Name = Estrogen receptor pdbqt/ligands_pdbqt/5toa_ligand_A.pdb
REMARK                            x       y       z     vdW  Elec       q    Type
REMARK                         _______ _______ _______ _____ _____    ______ ____
ATOM      1  C1  EST A 601      20.023  40.823  13.934  0.00  0.00    -0.001 A 
ATOM      2  C2  EST A 601      19.692  40.249  12.710  0.00  0.00    +0.042 A 
ATOM      3  C3  EST A 601      18.721  40.812  11.885  0.00  0.00    +0.195 A 
ATOM      4  O3  EST A 601      18.422  40.224  10.694  0.00  0.00    -0.287 OA
ATOM      5  C4  EST A 601      18.049  41.968  12.264  0.00  0.00    +0.037 A 
ATOM      6  C5  EST A 601      18.341  42.581  13.475  0.00  0.00    -0.023 A 
ATOM      7  C6  EST A 601      17.600  43.838  13.871  0.00  0.00    +0.026 C 
ATOM      8  C7  EST A 601      17.723  44.072  15.370  0.00  0.00    +0.005 C 
ATOM      9  C8  EST A 601      19.186  44.012  15.773  0.00  0.00    +0.004 C 
ATOM     10  C9  EST A 601      19.723  42.591  15.663  0.00  0.00    +0.022 C 
ATOM     11  C10 EST A 601      19.383  41.983  14.353  0.00  0.00    -0.026 A 
ATOM     12  C11 EST A 601      21.225  42.569  15.966  0.00  0.00    +0.004 C 
ATOM     13  C12 EST A 601      21.512  43.115  17.370  0.00  0.00    +0.003 C 
ATOM     14  C13 EST A 601      20.883  44.493  17.533  0.00  0.00    +0.028 C 
ATOM     15  C14 EST A 601      19.405  44.415  17.219  0.00  0.00    +0.003 C 
ATOM     16  C15 EST A 601      18.834  45.740  17.700  0.00  0.00    +0.003 C 
ATOM     17  C16 EST A 601      19.712  46.090  18.904  0.00  0.00    +0.033 C 
ATOM     18  C17 EST A 601      20.859  45.076  18.935  0.00  0.00    +0.152 C 
ATOM     19  O17 EST A 601      22.095  45.719  19.252  0.00  0.00    -0.223 OA
ATOM     20  C18 EST A 601      21.577  45.490  16.610  0.00  0.00    +0.003 C 
ATOM     21  H   EST A 601      18.869  39.445  10.430  0.00  0.00    +0.000 HD
ATOM     22  H   EST A 601      22.272  46.418  18.603  0.00  0.00    +0.000 HD
ENDROOT
TORSDOF 0
TER 
ENDMDL
