MODEL 4
REMARK minimizedAffinity -9.3699522
REMARK minimizedRMSD -1
ROOT
REMARK  Name = Estrogen receptor pdbqt/ligands_pdbqt/5toa_ligand_A.pdb
REMARK                            x       y       z     vdW  Elec       q    Type
REMARK                         _______ _______ _______ _____ _____    ______ ____
ATOM      1  C1  EST A 601      18.524  45.659  17.528  0.00  0.00    -0.001 A 
ATOM      2  C2  EST A 601      18.948  46.642  18.417  0.00  0.00    +0.042 A 
ATOM      3  C3  EST A 601      20.290  46.769  18.771  0.00  0.00    +0.195 A 
ATOM      4  O3  EST A 601      20.670  47.742  19.643  0.00  0.00    -0.287 OA
ATOM      5  C4  EST A 601      21.248  45.911  18.245  0.00  0.00    +0.037 A 
ATOM      6  C5  EST A 601      20.879  44.913  17.352  0.00  0.00    -0.023 A 
ATOM      7  C6  EST A 601      21.935  43.989  16.790  0.00  0.00    +0.026 C 
ATOM      8  C7  EST A 601      21.288  42.729  16.231  0.00  0.00    +0.005 C 
ATOM      9  C8  EST A 601      20.171  43.114  15.278  0.00  0.00    +0.004 C 
ATOM     10  C9  EST A 601      18.997  43.724  16.032  0.00  0.00    +0.022 C 
ATOM     11  C10 EST A 601      19.446  44.782  16.971  0.00  0.00    -0.026 A 
ATOM     12  C11 EST A 601      17.927  44.207  15.047  0.00  0.00    +0.004 C 
ATOM     13  C12 EST A 601      17.426  43.054  14.169  0.00  0.00    +0.003 C 
ATOM     14  C13 EST A 601      18.602  42.361  13.493  0.00  0.00    +0.028 C 
ATOM     15  C14 EST A 601      19.599  41.917  14.541  0.00  0.00    +0.003 C 
ATOM     16  C15 EST A 601      20.555  40.992  13.804  0.00  0.00    +0.003 C 
ATOM     17  C16 EST A 601      19.667  40.335  12.744  0.00  0.00    +0.033 C 
ATOM     18  C17 EST A 601      18.314  41.051  12.784  0.00  0.00    +0.152 C 
ATOM     19  O17 EST A 601      17.821  41.273  11.461  0.00  0.00    -0.223 OA
ATOM     20  C18 EST A 601      19.258  43.313  12.496  0.00  0.00    +0.003 C 
ATOM     21  H   EST A 601      20.031  48.325  20.004  0.00  0.00    +0.000 HD
ATOM     22  H   EST A 601      18.469  41.790  10.956  0.00  0.00    +0.000 HD
ENDROOT
TORSDOF 0
TER 
ENDMDL
