MODEL 5
REMARK minimizedAffinity -8.95800591
REMARK minimizedRMSD -1
ROOT
REMARK  Name = Estrogen receptor pdbqt/ligands_pdbqt/5toa_ligand_A.pdb
REMARK                            x       y       z     vdW  Elec       q    Type
REMARK                         _______ _______ _______ _____ _____    ______ ____
ATOM      1  C1  EST A 601      21.446  43.818  17.565  0.00  0.00    -0.001 A 
ATOM      2  C2  EST A 601      21.493  44.477  18.790  0.00  0.00    +0.042 A 
ATOM      3  C3  EST A 601      20.541  45.434  19.134  0.00  0.00    +0.195 A 
ATOM      4  O3  EST A 601      20.616  46.059  20.341  0.00  0.00    -0.287 OA
ATOM      5  C4  EST A 601      19.513  45.762  18.259  0.00  0.00    +0.037 A 
ATOM      6  C5  EST A 601      19.419  45.134  17.024  0.00  0.00    -0.023 A 
ATOM      7  C6  EST A 601      18.293  45.504  16.083  0.00  0.00    +0.026 C 
ATOM      8  C7  EST A 601      18.630  45.069  14.664  0.00  0.00    +0.005 C 
ATOM      9  C8  EST A 601      19.036  43.606  14.665  0.00  0.00    +0.004 C 
ATOM     10  C9  EST A 601      20.385  43.417  15.345  0.00  0.00    +0.022 C 
ATOM     11  C10 EST A 601      20.432  44.108  16.659  0.00  0.00    -0.026 A 
ATOM     12  C11 EST A 601      20.728  41.926  15.436  0.00  0.00    +0.004 C 
ATOM     13  C12 EST A 601      20.764  41.284  14.045  0.00  0.00    +0.003 C 
ATOM     14  C13 EST A 601      19.460  41.560  13.307  0.00  0.00    +0.028 C 
ATOM     15  C14 EST A 601      19.210  43.052  13.264  0.00  0.00    +0.003 C 
ATOM     16  C15 EST A 601      18.077  43.229  12.265  0.00  0.00    +0.003 C 
ATOM     17  C16 EST A 601      18.307  42.096  11.262  0.00  0.00    +0.033 C 
ATOM     18  C17 EST A 601      19.418  41.209  11.831  0.00  0.00    +0.152 C 
ATOM     19  O17 EST A 601      19.113  39.827  11.633  0.00  0.00    -0.223 OA
ATOM     20  C18 EST A 601      18.309  40.842  14.005  0.00  0.00    +0.003 C 
ATOM     21  H   EST A 601      21.306  45.845  20.938  0.00  0.00    +0.000 HD
ATOM     22  H   EST A 601      18.261  39.621  12.050  0.00  0.00    +0.000 HD
ENDROOT
TORSDOF 0
TER 
ENDMDL
