MODEL 3
REMARK minimizedAffinity -9.73580265
REMARK minimizedRMSD -1
ROOT
REMARK  Name = Estrogen receptor pdbqt/ligands_pdbqt/5toa_ligand_A.pdb
REMARK                            x       y       z     vdW  Elec       q    Type
REMARK                         _______ _______ _______ _____ _____    ______ ____
ATOM      1  C1  EST A 601      20.018  44.669  18.091  0.00  0.00    -0.001 A 
ATOM      2  C2  EST A 601      20.877  45.024  19.127  0.00  0.00    +0.042 A 
ATOM      3  C3  EST A 601      22.132  44.435  19.262  0.00  0.00    +0.195 A 
ATOM      4  O3  EST A 601      22.947  44.805  20.287  0.00  0.00    -0.287 OA
ATOM      5  C4  EST A 601      22.565  43.469  18.361  0.00  0.00    +0.037 A 
ATOM      6  C5  EST A 601      21.747  43.079  17.308  0.00  0.00    -0.023 A 
ATOM      7  C6  EST A 601      22.234  42.026  16.338  0.00  0.00    +0.026 C 
ATOM      8  C7  EST A 601      21.059  41.429  15.576  0.00  0.00    +0.005 C 
ATOM      9  C8  EST A 601      20.224  42.545  14.976  0.00  0.00    +0.004 C 
ATOM     10  C9  EST A 601      19.492  43.322  16.062  0.00  0.00    +0.022 C 
ATOM     11  C10 EST A 601      20.409  43.713  17.162  0.00  0.00    -0.026 A 
ATOM     12  C11 EST A 601      18.744  44.511  15.450  0.00  0.00    +0.004 C 
ATOM     13  C12 EST A 601      17.738  44.043  14.391  0.00  0.00    +0.003 C 
ATOM     14  C13 EST A 601      18.436  43.170  13.356  0.00  0.00    +0.028 C 
ATOM     15  C14 EST A 601      19.140  42.025  14.051  0.00  0.00    +0.003 C 
ATOM     16  C15 EST A 601      19.533  41.072  12.933  0.00  0.00    +0.003 C 
ATOM     17  C16 EST A 601      18.411  41.248  11.906  0.00  0.00    +0.033 C 
ATOM     18  C17 EST A 601      17.550  42.423  12.376  0.00  0.00    +0.152 C 
ATOM     19  O17 EST A 601      17.181  43.253  11.272  0.00  0.00    -0.223 OA
ATOM     20  C18 EST A 601      19.432  44.010  12.560  0.00  0.00    +0.003 C 
ATOM     21  H   EST A 601      22.664  45.455  20.899  0.00  0.00    +0.000 HD
ATOM     22  H   EST A 601      17.981  43.570  10.824  0.00  0.00    +0.000 HD
ENDROOT
TORSDOF 0
TER 
ENDMDL
