MODEL 1
REMARK minimizedAffinity -8.98844242
REMARK minimizedRMSD -1
REMARK SMILES Cc1ccc(S(=O)(=O)Nc2ccccc2CNc2cnc3ccccc3c2)cc1
REMARK SMILES IDX 10 1 15 2 14 3 13 4 12 5 11 6 9 7 6 9 7 10 8 11 5 12 1 13
REMARK SMILES IDX 2 14 3 15 29 16 4 17 28 18 16 19 17 20 18 22 19 23 27 24
REMARK SMILES IDX 20 25 26 26 21 27 25 28 22 29 24 30 23 31
REMARK H PARENT 9 8 17 21
REMARK Flexibility Score: inf
ROOT
ATOM      1  C   UNL     1     -14.146 205.254 118.670  1.00  0.00     0.054 A 
ATOM      2  C   UNL     1     -13.289 206.373 118.640  1.00  0.00    -0.005 A 
ATOM      3  C   UNL     1     -12.454 206.597 119.753  1.00  0.00     0.008 A 
ATOM      4  C   UNL     1     -12.482 205.750 120.862  1.00  0.00     0.001 A 
ATOM      5  C   UNL     1     -13.333 204.653 120.876  1.00  0.00     0.002 A 
ATOM      6  C   UNL     1     -14.156 204.402 119.780  1.00  0.00     0.027 A 
ENDROOT
BRANCH   1   7
ATOM      7  N   UNL     1     -14.996 204.958 117.564  1.00  0.00    -0.279 N 
ATOM      8  H   UNL     1     -15.997 205.119 117.625  1.00  0.00     0.180 HD
BRANCH   7   9
ATOM      9  S   UNL     1     -14.570 203.811 116.407  1.00  0.00     0.261 S 
ATOM     10  O   UNL     1     -13.123 203.756 116.434  1.00  0.00    -0.201 OA
ATOM     11  O   UNL     1     -15.364 202.616 116.585  1.00  0.00    -0.201 OA
BRANCH   9  12
ATOM     12  C   UNL     1     -15.050 204.579 114.879  1.00  0.00     0.087 A 
ATOM     13  C   UNL     1     -16.251 206.437 111.198  1.00  0.00     0.044 C 
ATOM     14  C   UNL     1     -15.853 205.771 112.484  1.00  0.00    -0.051 A 
ATOM     15  C   UNL     1     -15.332 204.470 112.486  1.00  0.00     0.005 A 
ATOM     16  C   UNL     1     -15.972 206.468 113.694  1.00  0.00     0.005 A 
ATOM     17  C   UNL     1     -14.939 203.867 113.682  1.00  0.00     0.022 A 
ATOM     18  C   UNL     1     -15.581 205.872 114.894  1.00  0.00     0.022 A 
ENDBRANCH   9  12
ENDBRANCH   7   9
ENDBRANCH   1   7
BRANCH   2  19
ATOM     19  C   UNL     1     -13.247 207.284 117.431  1.00  0.00     0.151 C 
BRANCH  19  20
ATOM     20  N   UNL     1     -11.939 207.880 117.157  1.00  0.00    -0.380 N 
ATOM     21  H   UNL     1     -11.256 207.646 117.872  1.00  0.00     0.160 HD
BRANCH  20  22
ATOM     22  C   UNL     1     -11.389 207.811 115.873  1.00  0.00     0.054 A 
ATOM     23  C   UNL     1     -10.113 208.239 115.518  1.00  0.00     0.137 A 
ATOM     24  C   UNL     1     -12.092 207.134 114.873  1.00  0.00     0.037 A 
ATOM     25  N   UNL     1      -9.557 208.117 114.284  1.00  0.00    -0.254 NA
ATOM     26  C   UNL     1     -11.557 206.978 113.584  1.00  0.00     0.002 A 
ATOM     27  C   UNL     1     -10.272 207.500 113.334  1.00  0.00     0.070 A 
ATOM     28  C   UNL     1     -12.264 206.323 112.559  1.00  0.00     0.010 A 
ATOM     29  C   UNL     1      -9.738 207.355 112.061  1.00  0.00     0.029 A 
ATOM     30  C   UNL     1     -11.705 206.190 111.289  1.00  0.00     0.001 A 
ATOM     31  C   UNL     1     -10.440 206.709 111.038  1.00  0.00     0.002 A 
ENDBRANCH  20  22
ENDBRANCH  19  20
ENDBRANCH   2  19
TORSDOF 6
ENDMDL
MODEL 2
REMARK minimizedAffinity -8.83152676
REMARK minimizedRMSD -1
REMARK SMILES Cc1ccc(S(=O)(=O)Nc2ccccc2CNc2cnc3ccccc3c2)cc1
REMARK SMILES IDX 10 1 15 2 14 3 13 4 12 5 11 6 9 7 6 9 7 10 8 11 5 12 1 13
REMARK SMILES IDX 2 14 3 15 29 16 4 17 28 18 16 19 17 20 18 22 19 23 27 24
REMARK SMILES IDX 20 25 26 26 21 27 25 28 22 29 24 30 23 31
REMARK H PARENT 9 8 17 21
REMARK Flexibility Score: inf
ROOT
ATOM      1  C   UNL     1     -13.212 204.843 119.686  1.00  0.00     0.054 A 
ATOM      2  C   UNL     1     -14.405 204.096 119.616  1.00  0.00    -0.005 A 
ATOM      3  C   UNL     1     -15.117 203.873 120.811  1.00  0.00     0.008 A 
ATOM      4  C   UNL     1     -14.652 204.359 122.034  1.00  0.00     0.001 A 
ATOM      5  C   UNL     1     -13.474 205.093 122.086  1.00  0.00     0.002 A 
ATOM      6  C   UNL     1     -12.761 205.340 120.915  1.00  0.00     0.027 A 
ENDROOT
BRANCH   1   7
ATOM      7  N   UNL     1     -12.458 205.126 118.509  1.00  0.00    -0.279 N 
ATOM      8  H   UNL     1     -11.653 204.558 118.263  1.00  0.00     0.180 HD
BRANCH   7   9
ATOM      9  S   UNL     1     -12.424 206.668 117.833  1.00  0.00     0.261 S 
ATOM     10  O   UNL     1     -13.766 207.189 117.995  1.00  0.00    -0.201 OA
ATOM     11  O   UNL     1     -11.277 207.396 118.329  1.00  0.00    -0.201 OA
BRANCH   9  12
ATOM     12  C   UNL     1     -12.177 206.347 116.104  1.00  0.00     0.087 A 
ATOM     13  C   UNL     1     -11.539 205.567 111.929  1.00  0.00     0.044 C 
ATOM     14  C   UNL     1     -11.740 205.855 113.388  1.00  0.00    -0.051 A 
ATOM     15  C   UNL     1     -12.206 207.107 113.814  1.00  0.00     0.005 A 
ATOM     16  C   UNL     1     -11.492 204.854 114.337  1.00  0.00     0.005 A 
ATOM     17  C   UNL     1     -12.416 207.360 115.171  1.00  0.00     0.022 A 
ATOM     18  C   UNL     1     -11.700 205.098 115.695  1.00  0.00     0.022 A 
ENDBRANCH   9  12
ENDBRANCH   7   9
ENDBRANCH   1   7
BRANCH   2  19
ATOM     19  C   UNL     1     -14.918 203.580 118.287  1.00  0.00     0.151 C 
BRANCH  19  20
ATOM     20  N   UNL     1     -15.558 204.591 117.444  1.00  0.00    -0.380 N 
ATOM     21  H   UNL     1     -15.463 205.525 117.830  1.00  0.00     0.160 HD
BRANCH  20  22
ATOM     22  C   UNL     1     -15.361 204.579 116.059  1.00  0.00     0.054 A 
ATOM     23  C   UNL     1     -14.980 203.471 115.308  1.00  0.00     0.137 A 
ATOM     24  C   UNL     1     -15.702 205.714 115.319  1.00  0.00     0.037 A 
ATOM     25  N   UNL     1     -14.847 203.445 113.956  1.00  0.00    -0.254 NA
ATOM     26  C   UNL     1     -15.585 205.734 113.919  1.00  0.00     0.002 A 
ATOM     27  C   UNL     1     -15.141 204.562 113.276  1.00  0.00     0.070 A 
ATOM     28  C   UNL     1     -15.899 206.879 113.163  1.00  0.00     0.010 A 
ATOM     29  C   UNL     1     -15.018 204.575 111.894  1.00  0.00     0.029 A 
ATOM     30  C   UNL     1     -15.767 206.865 111.776  1.00  0.00     0.001 A 
ATOM     31  C   UNL     1     -15.324 205.711 111.139  1.00  0.00     0.002 A 
ENDBRANCH  20  22
ENDBRANCH  19  20
ENDBRANCH   2  19
TORSDOF 6
ENDMDL
MODEL 3
REMARK minimizedAffinity -8.80694103
REMARK minimizedRMSD -1
REMARK SMILES Cc1ccc(S(=O)(=O)Nc2ccccc2CNc2cnc3ccccc3c2)cc1
REMARK SMILES IDX 10 1 15 2 14 3 13 4 12 5 11 6 9 7 6 9 7 10 8 11 5 12 1 13
REMARK SMILES IDX 2 14 3 15 29 16 4 17 28 18 16 19 17 20 18 22 19 23 27 24
REMARK SMILES IDX 20 25 26 26 21 27 25 28 22 29 24 30 23 31
REMARK H PARENT 9 8 17 21
REMARK Flexibility Score: inf
ROOT
ATOM      1  C   UNL     1     -12.232 204.762 119.397  1.00  0.00     0.054 A 
ATOM      2  C   UNL     1     -13.614 204.487 119.464  1.00  0.00    -0.005 A 
ATOM      3  C   UNL     1     -14.195 204.329 120.737  1.00  0.00     0.008 A 
ATOM      4  C   UNL     1     -13.429 204.422 121.901  1.00  0.00     0.001 A 
ATOM      5  C   UNL     1     -12.069 204.692 121.817  1.00  0.00     0.002 A 
ATOM      6  C   UNL     1     -11.476 204.870 120.569  1.00  0.00     0.027 A 
ENDROOT
BRANCH   1   7
ATOM      7  N   UNL     1     -11.590 204.959 118.139  1.00  0.00    -0.279 N 
ATOM      8  H   UNL     1     -11.026 204.222 117.726  1.00  0.00     0.180 HD
BRANCH   7   9
ATOM      9  S   UNL     1     -11.191 206.499 117.584  1.00  0.00     0.261 S 
ATOM     10  O   UNL     1     -12.307 207.343 117.958  1.00  0.00    -0.201 OA
ATOM     11  O   UNL     1      -9.841 206.830 117.981  1.00  0.00    -0.201 OA
BRANCH   9  12
ATOM     12  C   UNL     1     -11.225 206.314 115.818  1.00  0.00     0.087 A 
ATOM     13  C   UNL     1     -11.348 205.876 111.548  1.00  0.00     0.044 C 
ATOM     14  C   UNL     1     -11.329 206.016 113.042  1.00  0.00    -0.051 A 
ATOM     15  C   UNL     1     -11.074 204.909 113.863  1.00  0.00     0.005 A 
ATOM     16  C   UNL     1     -11.535 207.273 113.626  1.00  0.00     0.005 A 
ATOM     17  C   UNL     1     -11.031 205.051 115.251  1.00  0.00     0.022 A 
ATOM     18  C   UNL     1     -11.493 207.424 115.013  1.00  0.00     0.022 A 
ENDBRANCH   9  12
ENDBRANCH   7   9
ENDBRANCH   1   7
BRANCH   2  19
ATOM     19  C   UNL     1     -14.448 204.400 118.203  1.00  0.00     0.151 C 
BRANCH  19  20
ATOM     20  N   UNL     1     -14.885 205.690 117.667  1.00  0.00    -0.380 N 
ATOM     21  H   UNL     1     -14.420 206.469 118.123  1.00  0.00     0.160 HD
BRANCH  20  22
ATOM     22  C   UNL     1     -14.982 205.881 116.285  1.00  0.00     0.054 A 
ATOM     23  C   UNL     1     -15.145 207.109 115.650  1.00  0.00     0.137 A 
ATOM     24  C   UNL     1     -14.760 204.794 115.436  1.00  0.00     0.037 A 
ATOM     25  N   UNL     1     -15.179 207.301 114.306  1.00  0.00    -0.254 NA
ATOM     26  C   UNL     1     -14.781 204.944 114.039  1.00  0.00     0.002 A 
ATOM     27  C   UNL     1     -15.004 206.232 113.516  1.00  0.00     0.070 A 
ATOM     28  C   UNL     1     -14.586 203.854 113.171  1.00  0.00     0.010 A 
ATOM     29  C   UNL     1     -15.032 206.388 112.137  1.00  0.00     0.029 A 
ATOM     30  C   UNL     1     -14.619 204.037 111.790  1.00  0.00     0.001 A 
ATOM     31  C   UNL     1     -14.844 205.307 111.271  1.00  0.00     0.002 A 
ENDBRANCH  20  22
ENDBRANCH  19  20
ENDBRANCH   2  19
TORSDOF 6
ENDMDL
MODEL 4
REMARK minimizedAffinity -8.77487373
REMARK minimizedRMSD -1
REMARK SMILES Cc1ccc(S(=O)(=O)Nc2ccccc2CNc2cnc3ccccc3c2)cc1
REMARK SMILES IDX 10 1 15 2 14 3 13 4 12 5 11 6 9 7 6 9 7 10 8 11 5 12 1 13
REMARK SMILES IDX 2 14 3 15 29 16 4 17 28 18 16 19 17 20 18 22 19 23 27 24
REMARK SMILES IDX 20 25 26 26 21 27 25 28 22 29 24 30 23 31
REMARK H PARENT 9 8 17 21
REMARK Flexibility Score: inf
ROOT
ATOM      1  C   UNL     1     -11.505 205.437 118.072  1.00  0.00     0.054 A 
ATOM      2  C   UNL     1     -12.572 205.891 118.874  1.00  0.00    -0.005 A 
ATOM      3  C   UNL     1     -12.555 205.565 120.244  1.00  0.00     0.008 A 
ATOM      4  C   UNL     1     -11.526 204.800 120.795  1.00  0.00     0.001 A 
ATOM      5  C   UNL     1     -10.482 204.360 119.991  1.00  0.00     0.002 A 
ATOM      6  C   UNL     1     -10.469 204.684 118.636  1.00  0.00     0.027 A 
ENDROOT
BRANCH   1   7
ATOM      7  N   UNL     1     -11.451 205.756 116.683  1.00  0.00    -0.279 N 
ATOM      8  H   UNL     1     -11.662 205.052 115.983  1.00  0.00     0.180 HD
BRANCH   7   9
ATOM      9  S   UNL     1     -10.487 207.010 116.104  1.00  0.00     0.261 S 
ATOM     10  O   UNL     1     -11.157 208.229 116.510  1.00  0.00    -0.201 OA
ATOM     11  O   UNL     1      -9.105 206.768 116.452  1.00  0.00    -0.201 OA
BRANCH   9  12
ATOM     12  C   UNL     1     -10.653 206.867 114.341  1.00  0.00     0.087 A 
ATOM     13  C   UNL     1     -11.075 206.559 110.079  1.00  0.00     0.044 C 
ATOM     14  C   UNL     1     -10.952 206.677 111.570  1.00  0.00    -0.051 A 
ATOM     15  C   UNL     1     -11.634 205.792 112.417  1.00  0.00     0.005 A 
ATOM     16  C   UNL     1     -10.123 207.660 112.125  1.00  0.00     0.005 A 
ATOM     17  C   UNL     1     -11.494 205.890 113.803  1.00  0.00     0.022 A 
ATOM     18  C   UNL     1      -9.978 207.765 113.509  1.00  0.00     0.022 A 
ENDBRANCH   9  12
ENDBRANCH   7   9
ENDBRANCH   1   7
BRANCH   2  19
ATOM     19  C   UNL     1     -13.683 206.733 118.280  1.00  0.00     0.151 C 
BRANCH  19  20
ATOM     20  N   UNL     1     -14.835 205.972 117.793  1.00  0.00    -0.380 N 
ATOM     21  H   UNL     1     -15.716 206.403 118.058  1.00  0.00     0.160 HD
BRANCH  20  22
ATOM     22  C   UNL     1     -14.862 205.504 116.475  1.00  0.00     0.054 A 
ATOM     23  C   UNL     1     -14.928 204.165 116.096  1.00  0.00     0.137 A 
ATOM     24  C   UNL     1     -14.980 206.427 115.433  1.00  0.00     0.037 A 
ATOM     25  N   UNL     1     -15.016 203.714 114.818  1.00  0.00    -0.254 NA
ATOM     26  C   UNL     1     -15.078 206.007 114.096  1.00  0.00     0.002 A 
ATOM     27  C   UNL     1     -15.085 204.623 113.836  1.00  0.00     0.070 A 
ATOM     28  C   UNL     1     -15.169 206.925 113.033  1.00  0.00     0.010 A 
ATOM     29  C   UNL     1     -15.176 204.201 112.517  1.00  0.00     0.029 A 
ATOM     30  C   UNL     1     -15.260 206.475 111.718  1.00  0.00     0.001 A 
ATOM     31  C   UNL     1     -15.261 205.109 111.458  1.00  0.00     0.002 A 
ENDBRANCH  20  22
ENDBRANCH  19  20
ENDBRANCH   2  19
TORSDOF 6
ENDMDL
MODEL 5
REMARK minimizedAffinity -8.60421181
REMARK minimizedRMSD -1
REMARK SMILES Cc1ccc(S(=O)(=O)Nc2ccccc2CNc2cnc3ccccc3c2)cc1
REMARK SMILES IDX 10 1 15 2 14 3 13 4 12 5 11 6 9 7 6 9 7 10 8 11 5 12 1 13
REMARK SMILES IDX 2 14 3 15 29 16 4 17 28 18 16 19 17 20 18 22 19 23 27 24
REMARK SMILES IDX 20 25 26 26 21 27 25 28 22 29 24 30 23 31
REMARK H PARENT 9 8 17 21
REMARK Flexibility Score: inf
ROOT
ATOM      1  C   UNL     1     -14.929 205.403 115.857  1.00  0.00     0.054 A 
ATOM      2  C   UNL     1     -13.828 206.117 116.373  1.00  0.00    -0.005 A 
ATOM      3  C   UNL     1     -13.284 205.696 117.602  1.00  0.00     0.008 A 
ATOM      4  C   UNL     1     -13.824 204.617 118.303  1.00  0.00     0.001 A 
ATOM      5  C   UNL     1     -14.909 203.925 117.782  1.00  0.00     0.002 A 
ATOM      6  C   UNL     1     -15.454 204.312 116.559  1.00  0.00     0.027 A 
ENDROOT
BRANCH   1   7
ATOM      7  N   UNL     1     -15.509 205.763 114.606  1.00  0.00    -0.279 N 
ATOM      8  H   UNL     1     -16.246 206.461 114.559  1.00  0.00     0.180 HD
BRANCH   7   9
ATOM      9  S   UNL     1     -15.503 204.706 113.295  1.00  0.00     0.261 S 
ATOM     10  O   UNL     1     -15.080 203.429 113.832  1.00  0.00    -0.201 OA
ATOM     11  O   UNL     1     -16.741 204.830 112.558  1.00  0.00    -0.201 OA
BRANCH   9  12
ATOM     12  C   UNL     1     -14.184 205.326 112.280  1.00  0.00     0.087 A 
ATOM     13  C   UNL     1     -11.005 206.798 109.797  1.00  0.00     0.044 C 
ATOM     14  C   UNL     1     -12.110 206.259 110.657  1.00  0.00    -0.051 A 
ATOM     15  C   UNL     1     -11.824 205.592 111.857  1.00  0.00     0.005 A 
ATOM     16  C   UNL     1     -13.445 206.450 110.277  1.00  0.00     0.005 A 
ATOM     17  C   UNL     1     -12.858 205.116 112.666  1.00  0.00     0.022 A 
ATOM     18  C   UNL     1     -14.484 205.978 111.080  1.00  0.00     0.022 A 
ENDBRANCH   9  12
ENDBRANCH   7   9
ENDBRANCH   1   7
BRANCH   2  19
ATOM     19  C   UNL     1     -13.233 207.281 115.607  1.00  0.00     0.151 C 
BRANCH  19  20
ATOM     20  N   UNL     1     -12.154 207.984 116.302  1.00  0.00    -0.380 N 
ATOM     21  H   UNL     1     -12.251 207.928 117.311  1.00  0.00     0.160 HD
BRANCH  20  22
ATOM     22  C   UNL     1     -10.825 207.809 115.898  1.00  0.00     0.054 A 
ATOM     23  C   UNL     1      -9.753 207.545 116.747  1.00  0.00     0.137 A 
ATOM     24  C   UNL     1     -10.537 207.745 114.533  1.00  0.00     0.037 A 
ATOM     25  N   UNL     1      -8.475 207.315 116.349  1.00  0.00    -0.254 NA
ATOM     26  C   UNL     1      -9.231 207.505 114.074  1.00  0.00     0.002 A 
ATOM     27  C   UNL     1      -8.220 207.301 115.033  1.00  0.00     0.070 A 
ATOM     28  C   UNL     1      -8.920 207.465 112.702  1.00  0.00     0.010 A 
ATOM     29  C   UNL     1      -6.926 207.070 114.588  1.00  0.00     0.029 A 
ATOM     30  C   UNL     1      -7.613 207.231 112.281  1.00  0.00     0.001 A 
ATOM     31  C   UNL     1      -6.613 207.034 113.227  1.00  0.00     0.002 A 
ENDBRANCH  20  22
ENDBRANCH  19  20
ENDBRANCH   2  19
TORSDOF 6
ENDMDL
MODEL 6
REMARK minimizedAffinity -8.56781197
REMARK minimizedRMSD -1
REMARK SMILES Cc1ccc(S(=O)(=O)Nc2ccccc2CNc2cnc3ccccc3c2)cc1
REMARK SMILES IDX 10 1 15 2 14 3 13 4 12 5 11 6 9 7 6 9 7 10 8 11 5 12 1 13
REMARK SMILES IDX 2 14 3 15 29 16 4 17 28 18 16 19 17 20 18 22 19 23 27 24
REMARK SMILES IDX 20 25 26 26 21 27 25 28 22 29 24 30 23 31
REMARK H PARENT 9 8 17 21
REMARK Flexibility Score: inf
ROOT
ATOM      1  C   UNL     1     -13.444 205.899 112.374  1.00  0.00     0.054 A 
ATOM      2  C   UNL     1     -12.068 206.162 112.217  1.00  0.00    -0.005 A 
ATOM      3  C   UNL     1     -11.612 206.556 110.944  1.00  0.00     0.008 A 
ATOM      4  C   UNL     1     -12.487 206.667 109.862  1.00  0.00     0.001 A 
ATOM      5  C   UNL     1     -13.839 206.404 110.034  1.00  0.00     0.002 A 
ATOM      6  C   UNL     1     -14.317 206.028 111.288  1.00  0.00     0.027 A 
ENDROOT
BRANCH   1   7
ATOM      7  N   UNL     1     -13.973 205.521 113.643  1.00  0.00    -0.279 N 
ATOM      8  H   UNL     1     -14.212 204.553 113.836  1.00  0.00     0.180 HD
BRANCH   7   9
ATOM      9  S   UNL     1     -14.795 206.621 114.619  1.00  0.00     0.261 S 
ATOM     10  O   UNL     1     -14.053 207.860 114.510  1.00  0.00    -0.201 OA
ATOM     11  O   UNL     1     -16.210 206.573 114.329  1.00  0.00    -0.201 OA
BRANCH   9  12
ATOM     12  C   UNL     1     -14.537 205.982 116.256  1.00  0.00     0.087 A 
ATOM     13  C   UNL     1     -13.952 204.423 120.214  1.00  0.00     0.044 C 
ATOM     14  C   UNL     1     -14.181 204.976 118.838  1.00  0.00    -0.051 A 
ATOM     15  C   UNL     1     -14.173 206.359 118.611  1.00  0.00     0.005 A 
ATOM     16  C   UNL     1     -14.373 204.102 117.759  1.00  0.00     0.005 A 
ATOM     17  C   UNL     1     -14.360 206.866 117.324  1.00  0.00     0.022 A 
ATOM     18  C   UNL     1     -14.560 204.601 116.470  1.00  0.00     0.022 A 
ENDBRANCH   9  12
ENDBRANCH   7   9
ENDBRANCH   1   7
BRANCH   2  19
ATOM     19  C   UNL     1     -11.120 206.054 113.393  1.00  0.00     0.151 C 
BRANCH  19  20
ATOM     20  N   UNL     1     -11.043 207.253 114.229  1.00  0.00    -0.380 N 
ATOM     21  H   UNL     1     -11.767 207.927 113.997  1.00  0.00     0.160 HD
BRANCH  20  22
ATOM     22  C   UNL     1     -10.867 207.137 115.612  1.00  0.00     0.054 A 
ATOM     23  C   UNL     1     -10.911 208.190 116.522  1.00  0.00     0.137 A 
ATOM     24  C   UNL     1     -10.779 205.862 116.176  1.00  0.00     0.037 A 
ATOM     25  N   UNL     1     -10.800 208.068 117.870  1.00  0.00    -0.254 NA
ATOM     26  C   UNL     1     -10.668 205.686 117.566  1.00  0.00     0.002 A 
ATOM     27  C   UNL     1     -10.676 206.835 118.380  1.00  0.00     0.070 A 
ATOM     28  C   UNL     1     -10.552 204.410 118.147  1.00  0.00     0.010 A 
ATOM     29  C   UNL     1     -10.560 206.671 119.753  1.00  0.00     0.029 A 
ATOM     30  C   UNL     1     -10.437 204.272 119.529  1.00  0.00     0.001 A 
ATOM     31  C   UNL     1     -10.439 205.405 120.335  1.00  0.00     0.002 A 
ENDBRANCH  20  22
ENDBRANCH  19  20
ENDBRANCH   2  19
TORSDOF 6
ENDMDL
MODEL 7
REMARK minimizedAffinity -8.50056553
REMARK minimizedRMSD -1
REMARK SMILES Cc1ccc(S(=O)(=O)Nc2ccccc2CNc2cnc3ccccc3c2)cc1
REMARK SMILES IDX 10 1 15 2 14 3 13 4 12 5 11 6 9 7 6 9 7 10 8 11 5 12 1 13
REMARK SMILES IDX 2 14 3 15 29 16 4 17 28 18 16 19 17 20 18 22 19 23 27 24
REMARK SMILES IDX 20 25 26 26 21 27 25 28 22 29 24 30 23 31
REMARK H PARENT 9 8 17 21
REMARK Flexibility Score: inf
ROOT
ATOM      1  C   UNL     1      -8.428 208.479 115.676  1.00  0.00     0.054 A 
ATOM      2  C   UNL     1      -7.948 208.702 114.369  1.00  0.00    -0.005 A 
ATOM      3  C   UNL     1      -6.556 208.654 114.159  1.00  0.00     0.008 A 
ATOM      4  C   UNL     1      -5.672 208.410 115.212  1.00  0.00     0.001 A 
ATOM      5  C   UNL     1      -6.161 208.194 116.493  1.00  0.00     0.002 A 
ATOM      6  C   UNL     1      -7.535 208.221 116.722  1.00  0.00     0.027 A 
ENDROOT
BRANCH   1   7
ATOM      7  N   UNL     1      -9.828 208.490 115.949  1.00  0.00    -0.279 N 
ATOM      8  H   UNL     1     -10.374 209.336 115.818  1.00  0.00     0.180 HD
BRANCH   7   9
ATOM      9  S   UNL     1     -10.522 207.406 117.035  1.00  0.00     0.261 S 
ATOM     10  O   UNL     1      -9.736 206.194 116.925  1.00  0.00    -0.201 OA
ATOM     11  O   UNL     1     -10.720 208.051 118.313  1.00  0.00    -0.201 OA
BRANCH   9  12
ATOM     12  C   UNL     1     -12.115 207.080 116.320  1.00  0.00     0.087 A 
ATOM     13  C   UNL     1     -15.981 206.326 114.610  1.00  0.00     0.044 C 
ATOM     14  C   UNL     1     -14.642 206.596 115.231  1.00  0.00    -0.051 A 
ATOM     15  C   UNL     1     -14.098 205.714 116.175  1.00  0.00     0.005 A 
ATOM     16  C   UNL     1     -13.909 207.725 114.841  1.00  0.00     0.005 A 
ATOM     17  C   UNL     1     -12.840 205.957 116.728  1.00  0.00     0.022 A 
ATOM     18  C   UNL     1     -12.650 207.975 115.390  1.00  0.00     0.022 A 
ENDBRANCH   9  12
ENDBRANCH   7   9
ENDBRANCH   1   7
BRANCH   2  19
ATOM     19  C   UNL     1      -8.907 208.953 113.224  1.00  0.00     0.151 C 
BRANCH  19  20
ATOM     20  N   UNL     1      -9.023 207.849 112.270  1.00  0.00    -0.380 N 
ATOM     21  H   UNL     1      -8.135 207.380 112.119  1.00  0.00     0.160 HD
BRANCH  20  22
ATOM     22  C   UNL     1     -10.080 206.937 112.374  1.00  0.00     0.054 A 
ATOM     23  C   UNL     1     -10.231 205.990 113.383  1.00  0.00     0.137 A 
ATOM     24  C   UNL     1     -11.160 207.052 111.495  1.00  0.00     0.037 A 
ATOM     25  N   UNL     1     -11.287 205.146 113.516  1.00  0.00    -0.254 NA
ATOM     26  C   UNL     1     -12.276 206.205 111.597  1.00  0.00     0.002 A 
ATOM     27  C   UNL     1     -12.289 205.251 112.633  1.00  0.00     0.070 A 
ATOM     28  C   UNL     1     -13.359 206.291 110.703  1.00  0.00     0.010 A 
ATOM     29  C   UNL     1     -13.386 204.407 112.737  1.00  0.00     0.029 A 
ATOM     30  C   UNL     1     -14.448 205.431 110.829  1.00  0.00     0.001 A 
ATOM     31  C   UNL     1     -14.461 204.485 111.848  1.00  0.00     0.002 A 
ENDBRANCH  20  22
ENDBRANCH  19  20
ENDBRANCH   2  19
TORSDOF 6
ENDMDL
MODEL 8
REMARK minimizedAffinity -8.48397255
REMARK minimizedRMSD -1
REMARK SMILES Cc1ccc(S(=O)(=O)Nc2ccccc2CNc2cnc3ccccc3c2)cc1
REMARK SMILES IDX 10 1 15 2 14 3 13 4 12 5 11 6 9 7 6 9 7 10 8 11 5 12 1 13
REMARK SMILES IDX 2 14 3 15 29 16 4 17 28 18 16 19 17 20 18 22 19 23 27 24
REMARK SMILES IDX 20 25 26 26 21 27 25 28 22 29 24 30 23 31
REMARK H PARENT 9 8 17 21
REMARK Flexibility Score: inf
ROOT
ATOM      1  C   UNL     1      -8.327 207.388 116.048  1.00  0.00     0.054 A 
ATOM      2  C   UNL     1      -8.287 207.209 114.649  1.00  0.00    -0.005 A 
ATOM      3  C   UNL     1      -7.198 207.756 113.943  1.00  0.00     0.008 A 
ATOM      4  C   UNL     1      -6.193 208.470 114.599  1.00  0.00     0.001 A 
ATOM      5  C   UNL     1      -6.248 208.638 115.976  1.00  0.00     0.002 A 
ATOM      6  C   UNL     1      -7.307 208.091 116.698  1.00  0.00     0.027 A 
ENDROOT
BRANCH   1   7
ATOM      7  N   UNL     1      -9.388 206.836 116.823  1.00  0.00    -0.279 N 
ATOM      8  H   UNL     1      -9.538 205.832 116.854  1.00  0.00     0.180 HD
BRANCH   7   9
ATOM      9  S   UNL     1     -10.766 207.731 117.194  1.00  0.00     0.261 S 
ATOM     10  O   UNL     1     -10.672 208.013 118.612  1.00  0.00    -0.201 OA
ATOM     11  O   UNL     1     -10.932 208.798 116.232  1.00  0.00    -0.201 OA
BRANCH   9  12
ATOM     12  C   UNL     1     -12.083 206.562 116.965  1.00  0.00     0.087 A 
ATOM     13  C   UNL     1     -15.273 203.733 116.452  1.00  0.00     0.044 C 
ATOM     14  C   UNL     1     -14.150 204.708 116.653  1.00  0.00    -0.051 A 
ATOM     15  C   UNL     1     -12.828 204.349 116.356  1.00  0.00     0.005 A 
ATOM     16  C   UNL     1     -14.425 206.003 117.111  1.00  0.00     0.005 A 
ATOM     17  C   UNL     1     -11.791 205.270 116.520  1.00  0.00     0.022 A 
ATOM     18  C   UNL     1     -13.395 206.929 117.277  1.00  0.00     0.022 A 
ENDBRANCH   9  12
ENDBRANCH   7   9
ENDBRANCH   1   7
BRANCH   2  19
ATOM     19  C   UNL     1      -9.370 206.423 113.939  1.00  0.00     0.151 C 
BRANCH  19  20
ATOM     20  N   UNL     1     -10.513 207.220 113.493  1.00  0.00    -0.380 N 
ATOM     21  H   UNL     1     -10.234 207.973 112.871  1.00  0.00     0.160 HD
BRANCH  20  22
ATOM     22  C   UNL     1     -11.681 206.589 113.051  1.00  0.00     0.054 A 
ATOM     23  C   UNL     1     -11.730 205.475 112.218  1.00  0.00     0.137 A 
ATOM     24  C   UNL     1     -12.909 206.993 113.582  1.00  0.00     0.037 A 
ATOM     25  N   UNL     1     -12.862 204.827 111.838  1.00  0.00    -0.254 NA
ATOM     26  C   UNL     1     -14.105 206.351 113.222  1.00  0.00     0.002 A 
ATOM     27  C   UNL     1     -14.029 205.264 112.330  1.00  0.00     0.070 A 
ATOM     28  C   UNL     1     -15.352 206.764 113.726  1.00  0.00     0.010 A 
ATOM     29  C   UNL     1     -15.208 204.627 111.965  1.00  0.00     0.029 A 
ATOM     30  C   UNL     1     -16.521 206.108 113.344  1.00  0.00     0.001 A 
ATOM     31  C   UNL     1     -16.449 205.037 112.460  1.00  0.00     0.002 A 
ENDBRANCH  20  22
ENDBRANCH  19  20
ENDBRANCH   2  19
TORSDOF 6
ENDMDL
MODEL 9
REMARK minimizedAffinity -8.28232765
REMARK minimizedRMSD -1
REMARK SMILES Cc1ccc(S(=O)(=O)Nc2ccccc2CNc2cnc3ccccc3c2)cc1
REMARK SMILES IDX 10 1 15 2 14 3 13 4 12 5 11 6 9 7 6 9 7 10 8 11 5 12 1 13
REMARK SMILES IDX 2 14 3 15 29 16 4 17 28 18 16 19 17 20 18 22 19 23 27 24
REMARK SMILES IDX 20 25 26 26 21 27 25 28 22 29 24 30 23 31
REMARK H PARENT 9 8 17 21
REMARK Flexibility Score: inf
ROOT
ATOM      1  C   UNL     1     -13.749 206.037 114.702  1.00  0.00     0.054 A 
ATOM      2  C   UNL     1     -13.695 205.632 116.051  1.00  0.00    -0.005 A 
ATOM      3  C   UNL     1     -14.147 206.536 117.032  1.00  0.00     0.008 A 
ATOM      4  C   UNL     1     -14.617 207.804 116.687  1.00  0.00     0.001 A 
ATOM      5  C   UNL     1     -14.663 208.189 115.354  1.00  0.00     0.002 A 
ATOM      6  C   UNL     1     -14.237 207.305 114.364  1.00  0.00     0.027 A 
ENDROOT
BRANCH   1   7
ATOM      7  N   UNL     1     -13.331 205.159 113.659  1.00  0.00    -0.279 N 
ATOM      8  H   UNL     1     -12.532 205.390 113.077  1.00  0.00     0.180 HD
BRANCH   7   9
ATOM      9  S   UNL     1     -14.403 204.086 112.928  1.00  0.00     0.261 S 
ATOM     10  O   UNL     1     -13.743 203.648 111.715  1.00  0.00    -0.201 OA
ATOM     11  O   UNL     1     -14.883 203.130 113.901  1.00  0.00    -0.201 OA
BRANCH   9  12
ATOM     12  C   UNL     1     -15.760 205.129 112.453  1.00  0.00     0.087 A 
ATOM     13  C   UNL     1     -19.062 207.618 111.293  1.00  0.00     0.044 C 
ATOM     14  C   UNL     1     -17.911 206.734 111.676  1.00  0.00    -0.051 A 
ATOM     15  C   UNL     1     -16.687 206.816 110.999  1.00  0.00     0.005 A 
ATOM     16  C   UNL     1     -18.048 205.837 112.744  1.00  0.00     0.005 A 
ATOM     17  C   UNL     1     -15.613 206.009 111.378  1.00  0.00     0.022 A 
ATOM     18  C   UNL     1     -16.979 205.027 113.130  1.00  0.00     0.022 A 
ENDBRANCH   9  12
ENDBRANCH   7   9
ENDBRANCH   1   7
BRANCH   2  19
ATOM     19  C   UNL     1     -13.198 204.250 116.424  1.00  0.00     0.151 C 
BRANCH  19  20
ATOM     20  N   UNL     1     -13.521 203.831 117.788  1.00  0.00    -0.380 N 
ATOM     21  H   UNL     1     -13.227 204.517 118.478  1.00  0.00     0.160 HD
BRANCH  20  22
ATOM     22  C   UNL     1     -14.785 203.308 118.083  1.00  0.00     0.054 A 
ATOM     23  C   UNL     1     -15.607 202.633 117.186  1.00  0.00     0.137 A 
ATOM     24  C   UNL     1     -15.228 203.320 119.408  1.00  0.00     0.037 A 
ATOM     25  N   UNL     1     -16.807 202.073 117.489  1.00  0.00    -0.254 NA
ATOM     26  C   UNL     1     -16.460 202.750 119.770  1.00  0.00     0.002 A 
ATOM     27  C   UNL     1     -17.226 202.137 118.760  1.00  0.00     0.070 A 
ATOM     28  C   UNL     1     -16.932 202.778 121.095  1.00  0.00     0.010 A 
ATOM     29  C   UNL     1     -18.447 201.576 119.108  1.00  0.00     0.029 A 
ATOM     30  C   UNL     1     -18.162 202.208 121.419  1.00  0.00     0.001 A 
ATOM     31  C   UNL     1     -18.922 201.607 120.422  1.00  0.00     0.002 A 
ENDBRANCH  20  22
ENDBRANCH  19  20
ENDBRANCH   2  19
TORSDOF 6
ENDMDL
