MODEL 1
REMARK minimizedAffinity -8.62334156
REMARK minimizedRMSD -1
REMARK SMILES CS(=O)(=O)N(CC(=O)Nc1ccccc1C(=O)N1CCOCC1)c1ccc(Cl)cc1
REMARK SMILES IDX 9 1 7 2 8 3 10 5 15 6 14 7 13 8 11 9 12 10 16 11 18 12 19 13
REMARK SMILES IDX 23 14 20 15 17 16 22 17 21 18 6 19 5 20 24 21 25 22 30 23
REMARK SMILES IDX 26 24 29 25 27 26 28 27 2 28 3 29 4 30 1 31
REMARK H PARENT 9 4
REMARK Flexibility Score: inf
ROOT
ATOM      1  N   UNL     1     -12.278 206.387 113.400  1.00  0.00    -0.324 N 
ATOM      2  C   UNL     1     -11.025 206.563 112.827  1.00  0.00     0.245 C 
ATOM      3  O   UNL     1     -10.802 206.725 111.632  1.00  0.00    -0.273 OA
ATOM      4  H   UNL     1     -12.299 206.121 114.384  1.00  0.00     0.170 HD
ENDROOT
BRANCH   1   5
ATOM      5  C   UNL     1     -13.542 206.339 112.761  1.00  0.00     0.054 A 
ATOM      6  C   UNL     1     -14.696 206.672 113.505  1.00  0.00     0.063 A 
ATOM      7  C   UNL     1     -15.972 206.525 112.936  1.00  0.00     0.016 A 
ATOM      8  C   UNL     1     -16.108 206.126 111.608  1.00  0.00     0.001 A 
ATOM      9  C   UNL     1     -13.701 205.961 111.425  1.00  0.00     0.027 A 
ATOM     10  C   UNL     1     -14.973 205.859 110.852  1.00  0.00     0.002 A 
BRANCH   6  11
ATOM     11  C   UNL     1     -14.583 207.103 114.929  1.00  0.00     0.256 C 
ATOM     12  N   UNL     1     -14.543 206.136 115.941  1.00  0.00    -0.334 N 
ATOM     13  C   UNL     1     -15.435 204.968 115.905  1.00  0.00     0.148 C 
ATOM     14  C   UNL     1     -14.306 206.630 117.301  1.00  0.00     0.148 C 
ATOM     15  C   UNL     1     -14.987 203.896 116.903  1.00  0.00     0.181 C 
ATOM     16  O   UNL     1     -14.522 208.312 115.164  1.00  0.00    -0.269 OA
ATOM     17  C   UNL     1     -13.903 205.501 118.250  1.00  0.00     0.181 C 
ATOM     18  O   UNL     1     -14.864 204.439 118.226  1.00  0.00    -0.378 OA
ENDBRANCH   6  11
ENDBRANCH   1   5
BRANCH   2  19
ATOM     19  C   UNL     1      -9.893 206.473 113.848  1.00  0.00     0.235 C 
BRANCH  19  20
ATOM     20  N   UNL     1      -9.610 207.718 114.613  1.00  0.00    -0.261 N 
BRANCH  20  21
ATOM     21  C   UNL     1      -9.640 207.609 116.044  1.00  0.00     0.052 A 
ATOM     22  C   UNL     1      -8.632 206.973 116.772  1.00  0.00     0.028 A 
ATOM     23  C   UNL     1     -10.788 208.064 116.703  1.00  0.00     0.028 A 
ATOM     24  C   UNL     1      -8.750 206.829 118.155  1.00  0.00     0.022 A 
ATOM     25  C   UNL     1     -10.907 207.923 118.088  1.00  0.00     0.022 A 
ATOM     26  C   UNL     1      -9.886 207.308 118.810  1.00  0.00     0.041 A 
ATOM     27  Cl  UNL     1     -10.036 207.129 120.515  1.00  0.00    -0.084 Cl
ENDBRANCH  20  21
BRANCH  20  28
ATOM     28  S   UNL     1      -8.480 208.777 113.906  1.00  0.00     0.232 S 
ATOM     29  O   UNL     1      -7.939 209.606 114.967  1.00  0.00    -0.207 OA
ATOM     30  O   UNL     1      -9.009 209.362 112.692  1.00  0.00    -0.207 OA
ATOM     31  C   UNL     1      -7.196 207.631 113.449  1.00  0.00     0.183 C 
ENDBRANCH  20  28
ENDBRANCH  19  20
ENDBRANCH   2  19
TORSDOF 6
ENDMDL
MODEL 2
REMARK minimizedAffinity -8.58908844
REMARK minimizedRMSD -1
REMARK SMILES CS(=O)(=O)N(CC(=O)Nc1ccccc1C(=O)N1CCOCC1)c1ccc(Cl)cc1
REMARK SMILES IDX 9 1 7 2 8 3 10 5 15 6 14 7 13 8 11 9 12 10 16 11 18 12 19 13
REMARK SMILES IDX 23 14 20 15 17 16 22 17 21 18 6 19 5 20 24 21 25 22 30 23
REMARK SMILES IDX 26 24 29 25 27 26 28 27 2 28 3 29 4 30 1 31
REMARK H PARENT 9 4
REMARK Flexibility Score: inf
ROOT
ATOM      1  N   UNL     1     -14.292 205.854 113.858  1.00  0.00    -0.324 N 
ATOM      2  C   UNL     1     -14.980 204.764 114.372  1.00  0.00     0.245 C 
ATOM      3  O   UNL     1     -15.190 203.708 113.783  1.00  0.00    -0.273 OA
ATOM      4  H   UNL     1     -14.320 206.714 114.407  1.00  0.00     0.170 HD
ENDROOT
BRANCH   1   5
ATOM      5  C   UNL     1     -13.707 206.006 112.576  1.00  0.00     0.054 A 
ATOM      6  C   UNL     1     -12.298 206.007 112.464  1.00  0.00     0.063 A 
ATOM      7  C   UNL     1     -11.687 206.269 111.227  1.00  0.00     0.016 A 
ATOM      8  C   UNL     1     -12.463 206.451 110.084  1.00  0.00     0.001 A 
ATOM      9  C   UNL     1     -14.465 206.170 111.413  1.00  0.00     0.027 A 
ATOM     10  C   UNL     1     -13.848 206.387 110.177  1.00  0.00     0.002 A 
BRANCH   6  11
ATOM     11  C   UNL     1     -11.441 205.814 113.670  1.00  0.00     0.256 C 
ATOM     12  N   UNL     1     -10.537 206.817 114.041  1.00  0.00    -0.334 N 
ATOM     13  C   UNL     1      -9.727 207.514 113.032  1.00  0.00     0.148 C 
ATOM     14  C   UNL     1      -9.821 206.610 115.304  1.00  0.00     0.148 C 
ATOM     15  C   UNL     1      -9.082 208.776 113.613  1.00  0.00     0.181 C 
ATOM     16  O   UNL     1     -11.566 204.766 114.307  1.00  0.00    -0.269 OA
ATOM     17  C   UNL     1      -9.169 207.900 115.802  1.00  0.00     0.181 C 
ATOM     18  O   UNL     1      -8.326 208.473 114.796  1.00  0.00    -0.378 OA
ENDBRANCH   6  11
ENDBRANCH   1   5
BRANCH   2  19
ATOM     19  C   UNL     1     -15.531 205.021 115.773  1.00  0.00     0.235 C 
BRANCH  19  20
ATOM     20  N   UNL     1     -14.783 204.384 116.890  1.00  0.00    -0.261 N 
BRANCH  20  21
ATOM     21  C   UNL     1     -13.833 205.212 117.578  1.00  0.00     0.052 A 
ATOM     22  C   UNL     1     -14.137 206.504 118.014  1.00  0.00     0.028 A 
ATOM     23  C   UNL     1     -12.526 204.728 117.703  1.00  0.00     0.028 A 
ATOM     24  C   UNL     1     -13.152 207.292 118.609  1.00  0.00     0.022 A 
ATOM     25  C   UNL     1     -11.539 205.516 118.300  1.00  0.00     0.022 A 
ATOM     26  C   UNL     1     -11.856 206.795 118.755  1.00  0.00     0.041 A 
ATOM     27  Cl  UNL     1     -10.638 207.767 119.485  1.00  0.00    -0.084 Cl
ENDBRANCH  20  21
BRANCH  20  28
ATOM     28  S   UNL     1     -15.649 203.227 117.791  1.00  0.00     0.232 S 
ATOM     29  O   UNL     1     -16.978 203.135 117.216  1.00  0.00    -0.207 OA
ATOM     30  O   UNL     1     -15.458 203.430 119.212  1.00  0.00    -0.207 OA
ATOM     31  C   UNL     1     -14.789 201.738 117.328  1.00  0.00     0.183 C 
ENDBRANCH  20  28
ENDBRANCH  19  20
ENDBRANCH   2  19
TORSDOF 6
ENDMDL
MODEL 3
REMARK minimizedAffinity -8.54847527
REMARK minimizedRMSD -1
REMARK SMILES CS(=O)(=O)N(CC(=O)Nc1ccccc1C(=O)N1CCOCC1)c1ccc(Cl)cc1
REMARK SMILES IDX 9 1 7 2 8 3 10 5 15 6 14 7 13 8 11 9 12 10 16 11 18 12 19 13
REMARK SMILES IDX 23 14 20 15 17 16 22 17 21 18 6 19 5 20 24 21 25 22 30 23
REMARK SMILES IDX 26 24 29 25 27 26 28 27 2 28 3 29 4 30 1 31
REMARK H PARENT 9 4
REMARK Flexibility Score: inf
ROOT
ATOM      1  N   UNL     1     -11.048 206.109 113.647  1.00  0.00    -0.324 N 
ATOM      2  C   UNL     1     -11.806 205.796 112.527  1.00  0.00     0.245 C 
ATOM      3  O   UNL     1     -11.632 206.242 111.397  1.00  0.00    -0.273 OA
ATOM      4  H   UNL     1     -11.396 205.774 114.545  1.00  0.00     0.170 HD
ENDROOT
BRANCH   1   5
ATOM      5  C   UNL     1      -9.946 206.996 113.748  1.00  0.00     0.054 A 
ATOM      6  C   UNL     1      -9.863 207.856 114.865  1.00  0.00     0.063 A 
ATOM      7  C   UNL     1      -8.847 208.824 114.939  1.00  0.00     0.016 A 
ATOM      8  C   UNL     1      -7.868 208.892 113.950  1.00  0.00     0.001 A 
ATOM      9  C   UNL     1      -8.942 207.067 112.779  1.00  0.00     0.027 A 
ATOM     10  C   UNL     1      -7.909 208.005 112.881  1.00  0.00     0.002 A 
BRANCH   6  11
ATOM     11  C   UNL     1     -10.896 207.807 115.940  1.00  0.00     0.256 C 
ATOM     12  N   UNL     1     -10.550 207.322 117.208  1.00  0.00    -0.334 N 
ATOM     13  C   UNL     1      -9.705 206.128 117.355  1.00  0.00     0.148 C 
ATOM     14  C   UNL     1     -11.583 207.419 118.244  1.00  0.00     0.148 C 
ATOM     15  C   UNL     1      -9.183 205.990 118.788  1.00  0.00     0.181 C 
ATOM     16  O   UNL     1     -12.032 208.204 115.670  1.00  0.00    -0.269 OA
ATOM     17  C   UNL     1     -10.999 207.231 119.644  1.00  0.00     0.181 C 
ATOM     18  O   UNL     1     -10.263 206.005 119.735  1.00  0.00    -0.378 OA
ENDBRANCH   6  11
ENDBRANCH   1   5
BRANCH   2  19
ATOM     19  C   UNL     1     -12.965 204.853 112.845  1.00  0.00     0.235 C 
BRANCH  19  20
ATOM     20  N   UNL     1     -13.996 205.384 113.777  1.00  0.00    -0.261 N 
BRANCH  20  21
ATOM     21  C   UNL     1     -15.229 205.820 113.186  1.00  0.00     0.052 A 
ATOM     22  C   UNL     1     -16.464 205.260 113.522  1.00  0.00     0.028 A 
ATOM     23  C   UNL     1     -15.154 206.763 112.154  1.00  0.00     0.028 A 
ATOM     24  C   UNL     1     -17.622 205.669 112.860  1.00  0.00     0.022 A 
ATOM     25  C   UNL     1     -16.312 207.175 111.492  1.00  0.00     0.022 A 
ATOM     26  C   UNL     1     -17.544 206.629 111.850  1.00  0.00     0.041 A 
ATOM     27  Cl  UNL     1     -18.970 207.133 111.029  1.00  0.00    -0.084 Cl
ENDBRANCH  20  21
BRANCH  20  28
ATOM     28  S   UNL     1     -14.050 204.648 115.312  1.00  0.00     0.232 S 
ATOM     29  O   UNL     1     -12.680 204.491 115.766  1.00  0.00    -0.207 OA
ATOM     30  O   UNL     1     -14.976 203.535 115.319  1.00  0.00    -0.207 OA
ATOM     31  C   UNL     1     -14.761 205.962 116.282  1.00  0.00     0.183 C 
ENDBRANCH  20  28
ENDBRANCH  19  20
ENDBRANCH   2  19
TORSDOF 6
ENDMDL
MODEL 4
REMARK minimizedAffinity -8.33663368
REMARK minimizedRMSD -1
REMARK SMILES CS(=O)(=O)N(CC(=O)Nc1ccccc1C(=O)N1CCOCC1)c1ccc(Cl)cc1
REMARK SMILES IDX 9 1 7 2 8 3 10 5 15 6 14 7 13 8 11 9 12 10 16 11 18 12 19 13
REMARK SMILES IDX 23 14 20 15 17 16 22 17 21 18 6 19 5 20 24 21 25 22 30 23
REMARK SMILES IDX 26 24 29 25 27 26 28 27 2 28 3 29 4 30 1 31
REMARK H PARENT 9 4
REMARK Flexibility Score: inf
ROOT
ATOM      1  N   UNL     1     -15.943 203.667 118.180  1.00  0.00    -0.324 N 
ATOM      2  C   UNL     1     -14.675 203.926 117.680  1.00  0.00     0.245 C 
ATOM      3  O   UNL     1     -13.805 203.087 117.466  1.00  0.00    -0.273 OA
ATOM      4  H   UNL     1     -16.508 204.476 118.441  1.00  0.00     0.170 HD
ENDROOT
BRANCH   1   5
ATOM      5  C   UNL     1     -16.506 202.423 118.562  1.00  0.00     0.054 A 
ATOM      6  C   UNL     1     -17.006 202.273 119.875  1.00  0.00     0.063 A 
ATOM      7  C   UNL     1     -17.464 201.021 120.319  1.00  0.00     0.016 A 
ATOM      8  C   UNL     1     -17.504 199.937 119.445  1.00  0.00     0.001 A 
ATOM      9  C   UNL     1     -16.574 201.327 117.696  1.00  0.00     0.027 A 
ATOM     10  C   UNL     1     -17.073 200.096 118.133  1.00  0.00     0.002 A 
BRANCH   6  11
ATOM     11  C   UNL     1     -16.977 203.416 120.833  1.00  0.00     0.256 C 
ATOM     12  N   UNL     1     -18.155 203.794 121.490  1.00  0.00    -0.334 N 
ATOM     13  C   UNL     1     -19.435 203.854 120.771  1.00  0.00     0.148 C 
ATOM     14  C   UNL     1     -18.022 204.843 122.506  1.00  0.00     0.148 C 
ATOM     15  C   UNL     1     -20.615 203.951 121.744  1.00  0.00     0.181 C 
ATOM     16  O   UNL     1     -15.902 203.991 121.016  1.00  0.00    -0.269 OA
ATOM     17  C   UNL     1     -19.251 204.910 123.414  1.00  0.00     0.181 C 
ATOM     18  O   UNL     1     -20.451 205.056 122.646  1.00  0.00    -0.378 OA
ENDBRANCH   6  11
ENDBRANCH   1   5
BRANCH   2  19
ATOM     19  C   UNL     1     -14.419 205.416 117.465  1.00  0.00     0.235 C 
BRANCH  19  20
ATOM     20  N   UNL     1     -13.347 205.756 116.490  1.00  0.00    -0.261 N 
BRANCH  20  21
ATOM     21  C   UNL     1     -13.751 205.897 115.120  1.00  0.00     0.052 A 
ATOM     22  C   UNL     1     -14.815 206.713 114.729  1.00  0.00     0.028 A 
ATOM     23  C   UNL     1     -13.111 205.091 114.172  1.00  0.00     0.028 A 
ATOM     24  C   UNL     1     -15.213 206.753 113.392  1.00  0.00     0.022 A 
ATOM     25  C   UNL     1     -13.506 205.131 112.832  1.00  0.00     0.022 A 
ATOM     26  C   UNL     1     -14.554 205.966 112.447  1.00  0.00     0.041 A 
ATOM     27  Cl  UNL     1     -15.045 206.011 110.797  1.00  0.00    -0.084 Cl
ENDBRANCH  20  21
BRANCH  20  28
ATOM     28  S   UNL     1     -12.110 206.768 117.078  1.00  0.00     0.232 S 
ATOM     29  O   UNL     1     -12.462 207.137 118.437  1.00  0.00    -0.207 OA
ATOM     30  O   UNL     1     -11.752 207.770 116.096  1.00  0.00    -0.207 OA
ATOM     31  C   UNL     1     -10.764 205.608 117.197  1.00  0.00     0.183 C 
ENDBRANCH  20  28
ENDBRANCH  19  20
ENDBRANCH   2  19
TORSDOF 6
ENDMDL
MODEL 5
REMARK minimizedAffinity -8.04814148
REMARK minimizedRMSD -1
REMARK SMILES CS(=O)(=O)N(CC(=O)Nc1ccccc1C(=O)N1CCOCC1)c1ccc(Cl)cc1
REMARK SMILES IDX 9 1 7 2 8 3 10 5 15 6 14 7 13 8 11 9 12 10 16 11 18 12 19 13
REMARK SMILES IDX 23 14 20 15 17 16 22 17 21 18 6 19 5 20 24 21 25 22 30 23
REMARK SMILES IDX 26 24 29 25 27 26 28 27 2 28 3 29 4 30 1 31
REMARK H PARENT 9 4
REMARK Flexibility Score: inf
ROOT
ATOM      1  N   UNL     1     -14.251 206.113 114.017  1.00  0.00    -0.324 N 
ATOM      2  C   UNL     1     -14.899 205.103 114.715  1.00  0.00     0.245 C 
ATOM      3  O   UNL     1     -15.211 204.006 114.262  1.00  0.00    -0.273 OA
ATOM      4  H   UNL     1     -14.186 207.020 114.478  1.00  0.00     0.170 HD
ENDROOT
BRANCH   1   5
ATOM      5  C   UNL     1     -13.828 206.120 112.664  1.00  0.00     0.054 A 
ATOM      6  C   UNL     1     -12.447 206.019 112.380  1.00  0.00     0.063 A 
ATOM      7  C   UNL     1     -11.986 206.138 111.059  1.00  0.00     0.016 A 
ATOM      8  C   UNL     1     -12.891 206.278 110.008  1.00  0.00     0.001 A 
ATOM      9  C   UNL     1     -14.719 206.239 111.594  1.00  0.00     0.027 A 
ATOM     10  C   UNL     1     -14.254 206.313 110.276  1.00  0.00     0.002 A 
BRANCH   6  11
ATOM     11  C   UNL     1     -11.455 205.869 113.484  1.00  0.00     0.256 C 
ATOM     12  N   UNL     1     -10.559 206.911 113.752  1.00  0.00    -0.334 N 
ATOM     13  C   UNL     1      -9.895 207.637 112.659  1.00  0.00     0.148 C 
ATOM     14  C   UNL     1      -9.699 206.742 114.928  1.00  0.00     0.148 C 
ATOM     15  C   UNL     1      -9.245 208.929 113.165  1.00  0.00     0.181 C 
ATOM     16  O   UNL     1     -11.463 204.820 114.131  1.00  0.00    -0.269 OA
ATOM     17  C   UNL     1      -9.052 208.060 115.351  1.00  0.00     0.181 C 
ATOM     18  O   UNL     1      -8.351 208.664 114.257  1.00  0.00    -0.378 OA
ENDBRANCH   6  11
ENDBRANCH   1   5
BRANCH   2  19
ATOM     19  C   UNL     1     -15.262 205.512 116.141  1.00  0.00     0.235 C 
BRANCH  19  20
ATOM     20  N   UNL     1     -14.567 204.767 117.226  1.00  0.00    -0.261 N 
BRANCH  20  21
ATOM     21  C   UNL     1     -15.041 203.440 117.497  1.00  0.00     0.052 A 
ATOM     22  C   UNL     1     -14.234 202.308 117.358  1.00  0.00     0.028 A 
ATOM     23  C   UNL     1     -16.399 203.289 117.802  1.00  0.00     0.028 A 
ATOM     24  C   UNL     1     -14.770 201.036 117.561  1.00  0.00     0.022 A 
ATOM     25  C   UNL     1     -16.937 202.016 118.008  1.00  0.00     0.022 A 
ATOM     26  C   UNL     1     -16.119 200.894 117.890  1.00  0.00     0.041 A 
ATOM     27  Cl  UNL     1     -16.783 199.325 118.138  1.00  0.00    -0.084 Cl
ENDBRANCH  20  21
BRANCH  20  28
ATOM     28  S   UNL     1     -12.899 205.077 117.379  1.00  0.00     0.232 S 
ATOM     29  O   UNL     1     -12.653 206.401 116.839  1.00  0.00    -0.207 OA
ATOM     30  O   UNL     1     -12.120 203.934 116.951  1.00  0.00    -0.207 OA
ATOM     31  C   UNL     1     -12.750 205.212 119.148  1.00  0.00     0.183 C 
ENDBRANCH  20  28
ENDBRANCH  19  20
ENDBRANCH   2  19
TORSDOF 6
ENDMDL
MODEL 6
REMARK minimizedAffinity -7.89172983
REMARK minimizedRMSD -1
REMARK SMILES CS(=O)(=O)N(CC(=O)Nc1ccccc1C(=O)N1CCOCC1)c1ccc(Cl)cc1
REMARK SMILES IDX 9 1 7 2 8 3 10 5 15 6 14 7 13 8 11 9 12 10 16 11 18 12 19 13
REMARK SMILES IDX 23 14 20 15 17 16 22 17 21 18 6 19 5 20 24 21 25 22 30 23
REMARK SMILES IDX 26 24 29 25 27 26 28 27 2 28 3 29 4 30 1 31
REMARK H PARENT 9 4
REMARK Flexibility Score: inf
ROOT
ATOM      1  N   UNL     1     -11.264 206.979 113.804  1.00  0.00    -0.324 N 
ATOM      2  C   UNL     1     -11.974 206.326 112.806  1.00  0.00     0.245 C 
ATOM      3  O   UNL     1     -11.483 205.728 111.854  1.00  0.00    -0.273 OA
ATOM      4  H   UNL     1     -11.804 207.553 114.451  1.00  0.00     0.170 HD
ENDROOT
BRANCH   1   5
ATOM      5  C   UNL     1      -9.860 207.117 113.944  1.00  0.00     0.054 A 
ATOM      6  C   UNL     1      -9.338 207.588 115.170  1.00  0.00     0.063 A 
ATOM      7  C   UNL     1      -7.963 207.844 115.302  1.00  0.00     0.016 A 
ATOM      8  C   UNL     1      -7.091 207.561 114.254  1.00  0.00     0.001 A 
ATOM      9  C   UNL     1      -8.964 206.820 112.913  1.00  0.00     0.027 A 
ATOM     10  C   UNL     1      -7.591 207.036 113.067  1.00  0.00     0.002 A 
BRANCH   6  11
ATOM     11  C   UNL     1     -10.247 207.900 116.311  1.00  0.00     0.256 C 
ATOM     12  N   UNL     1     -10.232 207.082 117.448  1.00  0.00    -0.334 N 
ATOM     13  C   UNL     1     -10.165 205.619 117.325  1.00  0.00     0.148 C 
ATOM     14  C   UNL     1     -11.060 207.522 118.575  1.00  0.00     0.148 C 
ATOM     15  C   UNL     1      -9.817 204.964 118.665  1.00  0.00     0.181 C 
ATOM     16  O   UNL     1     -10.986 208.882 116.211  1.00  0.00    -0.269 OA
ATOM     17  C   UNL     1     -10.685 206.799 119.868  1.00  0.00     0.181 C 
ATOM     18  O   UNL     1     -10.728 205.377 119.695  1.00  0.00    -0.378 OA
ENDBRANCH   6  11
ENDBRANCH   1   5
BRANCH   2  19
ATOM     19  C   UNL     1     -13.485 206.472 112.966  1.00  0.00     0.235 C 
BRANCH  19  20
ATOM     20  N   UNL     1     -14.164 205.387 113.726  1.00  0.00    -0.261 N 
BRANCH  20  21
ATOM     21  C   UNL     1     -14.104 205.474 115.157  1.00  0.00     0.052 A 
ATOM     22  C   UNL     1     -13.931 204.354 115.974  1.00  0.00     0.028 A 
ATOM     23  C   UNL     1     -14.344 206.725 115.739  1.00  0.00     0.028 A 
ATOM     24  C   UNL     1     -13.957 204.488 117.362  1.00  0.00     0.022 A 
ATOM     25  C   UNL     1     -14.368 206.861 117.129  1.00  0.00     0.022 A 
ATOM     26  C   UNL     1     -14.171 205.742 117.936  1.00  0.00     0.041 A 
ATOM     27  Cl  UNL     1     -14.207 205.910 119.649  1.00  0.00    -0.084 Cl
ENDBRANCH  20  21
BRANCH  20  28
ATOM     28  S   UNL     1     -15.578 204.762 113.012  1.00  0.00     0.232 S 
ATOM     29  O   UNL     1     -16.708 205.279 113.762  1.00  0.00    -0.207 OA
ATOM     30  O   UNL     1     -15.439 203.345 112.744  1.00  0.00    -0.207 OA
ATOM     31  C   UNL     1     -15.566 205.620 111.451  1.00  0.00     0.183 C 
ENDBRANCH  20  28
ENDBRANCH  19  20
ENDBRANCH   2  19
TORSDOF 6
ENDMDL
MODEL 7
REMARK minimizedAffinity -7.89076424
REMARK minimizedRMSD -1
REMARK SMILES CS(=O)(=O)N(CC(=O)Nc1ccccc1C(=O)N1CCOCC1)c1ccc(Cl)cc1
REMARK SMILES IDX 9 1 7 2 8 3 10 5 15 6 14 7 13 8 11 9 12 10 16 11 18 12 19 13
REMARK SMILES IDX 23 14 20 15 17 16 22 17 21 18 6 19 5 20 24 21 25 22 30 23
REMARK SMILES IDX 26 24 29 25 27 26 28 27 2 28 3 29 4 30 1 31
REMARK H PARENT 9 4
REMARK Flexibility Score: inf
ROOT
ATOM      1  N   UNL     1     -15.800 203.746 118.359  1.00  0.00    -0.324 N 
ATOM      2  C   UNL     1     -14.879 203.380 117.387  1.00  0.00     0.245 C 
ATOM      3  O   UNL     1     -14.813 202.284 116.840  1.00  0.00    -0.273 OA
ATOM      4  H   UNL     1     -15.645 204.640 118.825  1.00  0.00     0.170 HD
ENDROOT
BRANCH   1   5
ATOM      5  C   UNL     1     -16.832 202.965 118.937  1.00  0.00     0.054 A 
ATOM      6  C   UNL     1     -16.804 202.719 120.328  1.00  0.00     0.063 A 
ATOM      7  C   UNL     1     -17.746 201.856 120.913  1.00  0.00     0.016 A 
ATOM      8  C   UNL     1     -18.762 201.297 120.141  1.00  0.00     0.001 A 
ATOM      9  C   UNL     1     -17.872 202.411 118.186  1.00  0.00     0.027 A 
ATOM     10  C   UNL     1     -18.832 201.588 118.783  1.00  0.00     0.002 A 
BRANCH   6  11
ATOM     11  C   UNL     1     -15.729 203.303 121.181  1.00  0.00     0.256 C 
ATOM     12  N   UNL     1     -16.075 204.124 122.261  1.00  0.00    -0.334 N 
ATOM     13  C   UNL     1     -17.133 205.137 122.131  1.00  0.00     0.148 C 
ATOM     14  C   UNL     1     -14.973 204.559 123.125  1.00  0.00     0.148 C 
ATOM     15  C   UNL     1     -17.568 205.664 123.502  1.00  0.00     0.181 C 
ATOM     16  O   UNL     1     -14.558 203.034 120.902  1.00  0.00    -0.269 OA
ATOM     17  C   UNL     1     -15.482 205.111 124.457  1.00  0.00     0.181 C 
ATOM     18  O   UNL     1     -16.444 206.153 124.249  1.00  0.00    -0.378 OA
ENDBRANCH   6  11
ENDBRANCH   1   5
BRANCH   2  19
ATOM     19  C   UNL     1     -13.870 204.487 117.085  1.00  0.00     0.235 C 
BRANCH  19  20
ATOM     20  N   UNL     1     -13.330 204.510 115.698  1.00  0.00    -0.261 N 
BRANCH  20  21
ATOM     21  C   UNL     1     -14.197 205.040 114.683  1.00  0.00     0.052 A 
ATOM     22  C   UNL     1     -14.709 206.339 114.734  1.00  0.00     0.028 A 
ATOM     23  C   UNL     1     -14.621 204.166 113.676  1.00  0.00     0.028 A 
ATOM     24  C   UNL     1     -15.608 206.775 113.760  1.00  0.00     0.022 A 
ATOM     25  C   UNL     1     -15.519 204.602 112.699  1.00  0.00     0.022 A 
ATOM     26  C   UNL     1     -16.007 205.907 112.743  1.00  0.00     0.041 A 
ATOM     27  Cl  UNL     1     -17.119 206.442 111.542  1.00  0.00    -0.084 Cl
ENDBRANCH  20  21
BRANCH  20  28
ATOM     28  S   UNL     1     -11.657 204.798 115.564  1.00  0.00     0.232 S 
ATOM     29  O   UNL     1     -11.371 205.048 114.163  1.00  0.00    -0.207 OA
ATOM     30  O   UNL     1     -10.903 203.822 116.322  1.00  0.00    -0.207 OA
ATOM     31  C   UNL     1     -11.525 206.365 116.399  1.00  0.00     0.183 C 
ENDBRANCH  20  28
ENDBRANCH  19  20
ENDBRANCH   2  19
TORSDOF 6
ENDMDL
MODEL 8
REMARK minimizedAffinity -7.87817287
REMARK minimizedRMSD -1
REMARK SMILES CS(=O)(=O)N(CC(=O)Nc1ccccc1C(=O)N1CCOCC1)c1ccc(Cl)cc1
REMARK SMILES IDX 9 1 7 2 8 3 10 5 15 6 14 7 13 8 11 9 12 10 16 11 18 12 19 13
REMARK SMILES IDX 23 14 20 15 17 16 22 17 21 18 6 19 5 20 24 21 25 22 30 23
REMARK SMILES IDX 26 24 29 25 27 26 28 27 2 28 3 29 4 30 1 31
REMARK H PARENT 9 4
REMARK Flexibility Score: inf
ROOT
ATOM      1  N   UNL     1     -15.990 203.689 118.138  1.00  0.00    -0.324 N 
ATOM      2  C   UNL     1     -14.716 203.911 117.633  1.00  0.00     0.245 C 
ATOM      3  O   UNL     1     -13.845 203.059 117.488  1.00  0.00    -0.273 OA
ATOM      4  H   UNL     1     -16.555 204.515 118.335  1.00  0.00     0.170 HD
ENDROOT
BRANCH   1   5
ATOM      5  C   UNL     1     -16.557 202.476 118.602  1.00  0.00     0.054 A 
ATOM      6  C   UNL     1     -17.043 202.412 119.927  1.00  0.00     0.063 A 
ATOM      7  C   UNL     1     -17.506 201.194 120.453  1.00  0.00     0.016 A 
ATOM      8  C   UNL     1     -17.564 200.058 119.649  1.00  0.00     0.001 A 
ATOM      9  C   UNL     1     -16.644 201.330 117.807  1.00  0.00     0.027 A 
ATOM     10  C   UNL     1     -17.147 200.131 118.325  1.00  0.00     0.002 A 
BRANCH   6  11
ATOM     11  C   UNL     1     -16.995 203.613 120.812  1.00  0.00     0.256 C 
ATOM     12  N   UNL     1     -15.758 204.188 121.126  1.00  0.00    -0.334 N 
ATOM     13  C   UNL     1     -14.597 203.349 121.459  1.00  0.00     0.148 C 
ATOM     14  C   UNL     1     -15.799 205.435 121.896  1.00  0.00     0.148 C 
ATOM     15  C   UNL     1     -13.298 204.160 121.428  1.00  0.00     0.181 C 
ATOM     16  O   UNL     1     -18.062 204.063 121.235  1.00  0.00    -0.269 OA
ATOM     17  C   UNL     1     -14.459 206.170 121.855  1.00  0.00     0.181 C 
ATOM     18  O   UNL     1     -13.389 205.315 122.276  1.00  0.00    -0.378 OA
ENDBRANCH   6  11
ENDBRANCH   1   5
BRANCH   2  19
ATOM     19  C   UNL     1     -14.456 205.382 117.314  1.00  0.00     0.235 C 
BRANCH  19  20
ATOM     20  N   UNL     1     -13.324 205.654 116.387  1.00  0.00    -0.261 N 
BRANCH  20  21
ATOM     21  C   UNL     1     -13.635 205.671 114.986  1.00  0.00     0.052 A 
ATOM     22  C   UNL     1     -12.820 205.064 114.026  1.00  0.00     0.028 A 
ATOM     23  C   UNL     1     -14.741 206.425 114.578  1.00  0.00     0.028 A 
ATOM     24  C   UNL     1     -13.131 205.177 112.671  1.00  0.00     0.022 A 
ATOM     25  C   UNL     1     -15.055 206.538 113.221  1.00  0.00     0.022 A 
ATOM     26  C   UNL     1     -14.250 205.910 112.272  1.00  0.00     0.041 A 
ATOM     27  Cl  UNL     1     -14.633 206.054 110.600  1.00  0.00    -0.084 Cl
ENDBRANCH  20  21
BRANCH  20  28
ATOM     28  S   UNL     1     -12.141 206.733 116.966  1.00  0.00     0.232 S 
ATOM     29  O   UNL     1     -12.266 207.963 116.206  1.00  0.00    -0.207 OA
ATOM     30  O   UNL     1     -10.863 206.068 117.114  1.00  0.00    -0.207 OA
ATOM     31  C   UNL     1     -12.776 207.074 118.595  1.00  0.00     0.183 C 
ENDBRANCH  20  28
ENDBRANCH  19  20
ENDBRANCH   2  19
TORSDOF 6
ENDMDL
MODEL 9
REMARK minimizedAffinity -7.76907158
REMARK minimizedRMSD -1
REMARK SMILES CS(=O)(=O)N(CC(=O)Nc1ccccc1C(=O)N1CCOCC1)c1ccc(Cl)cc1
REMARK SMILES IDX 9 1 7 2 8 3 10 5 15 6 14 7 13 8 11 9 12 10 16 11 18 12 19 13
REMARK SMILES IDX 23 14 20 15 17 16 22 17 21 18 6 19 5 20 24 21 25 22 30 23
REMARK SMILES IDX 26 24 29 25 27 26 28 27 2 28 3 29 4 30 1 31
REMARK H PARENT 9 4
REMARK Flexibility Score: inf
ROOT
ATOM      1  N   UNL     1     -13.922 206.859 114.991  1.00  0.00    -0.324 N 
ATOM      2  C   UNL     1     -13.550 206.477 116.273  1.00  0.00     0.245 C 
ATOM      3  O   UNL     1     -13.987 205.508 116.885  1.00  0.00    -0.273 OA
ATOM      4  H   UNL     1     -13.583 207.765 114.666  1.00  0.00     0.170 HD
ENDROOT
BRANCH   1   5
ATOM      5  C   UNL     1     -14.868 206.252 114.127  1.00  0.00     0.054 A 
ATOM      6  C   UNL     1     -14.404 205.509 113.019  1.00  0.00     0.063 A 
ATOM      7  C   UNL     1     -15.314 204.993 112.082  1.00  0.00     0.016 A 
ATOM      8  C   UNL     1     -16.685 205.140 112.279  1.00  0.00     0.001 A 
ATOM      9  C   UNL     1     -16.248 206.370 114.316  1.00  0.00     0.027 A 
ATOM     10  C   UNL     1     -17.149 205.815 113.402  1.00  0.00     0.002 A 
BRANCH   6  11
ATOM     11  C   UNL     1     -12.941 205.334 112.782  1.00  0.00     0.256 C 
ATOM     12  N   UNL     1     -12.323 206.034 111.739  1.00  0.00    -0.334 N 
ATOM     13  C   UNL     1     -12.969 206.158 110.425  1.00  0.00     0.148 C 
ATOM     14  C   UNL     1     -10.865 205.907 111.647  1.00  0.00     0.148 C 
ATOM     15  C   UNL     1     -12.289 207.232 109.570  1.00  0.00     0.181 C 
ATOM     16  O   UNL     1     -12.322 204.572 113.527  1.00  0.00    -0.269 OA
ATOM     17  C   UNL     1     -10.259 206.984 110.747  1.00  0.00     0.181 C 
ATOM     18  O   UNL     1     -10.879 206.985 109.456  1.00  0.00    -0.378 OA
ENDBRANCH   6  11
ENDBRANCH   1   5
BRANCH   2  19
ATOM     19  C   UNL     1     -12.551 207.442 116.909  1.00  0.00     0.235 C 
BRANCH  19  20
ATOM     20  N   UNL     1     -11.165 206.925 117.071  1.00  0.00    -0.261 N 
BRANCH  20  21
ATOM     21  C   UNL     1     -10.223 207.293 116.053  1.00  0.00     0.052 A 
ATOM     22  C   UNL     1     -10.007 208.619 115.670  1.00  0.00     0.028 A 
ATOM     23  C   UNL     1      -9.591 206.259 115.353  1.00  0.00     0.028 A 
ATOM     24  C   UNL     1      -9.135 208.913 114.621  1.00  0.00     0.022 A 
ATOM     25  C   UNL     1      -8.716 206.551 114.304  1.00  0.00     0.022 A 
ATOM     26  C   UNL     1      -8.488 207.878 113.944  1.00  0.00     0.041 A 
ATOM     27  Cl  UNL     1      -7.414 208.237 112.647  1.00  0.00    -0.084 Cl
ENDBRANCH  20  21
BRANCH  20  28
ATOM     28  S   UNL     1     -10.612 206.793 118.676  1.00  0.00     0.232 S 
ATOM     29  O   UNL     1     -11.704 207.190 119.546  1.00  0.00    -0.207 OA
ATOM     30  O   UNL     1      -9.292 207.372 118.817  1.00  0.00    -0.207 OA
ATOM     31  C   UNL     1     -10.456 205.026 118.826  1.00  0.00     0.183 C 
ENDBRANCH  20  28
ENDBRANCH  19  20
ENDBRANCH   2  19
TORSDOF 6
ENDMDL
