MODEL 1
REMARK minimizedAffinity -8.91436672
REMARK minimizedRMSD -1
REMARK SMILES CC(C)COC(=O)c1ccc2c(c1)/C(=N/Nc1ccc(S(N)(=O)=O)cc1)C(=O)N2
REMARK SMILES IDX 28 1 27 2 14 3 15 4 12 5 11 6 29 7 10 8 9 9 8 10 13 11 16 13
REMARK SMILES IDX 17 15 18 16 26 17 19 18 25 19 20 20 21 21 23 22 24 23 22 24
REMARK SMILES IDX 6 27 7 28 5 29 4 30 2 31 1 32 3 33
REMARK H PARENT 29 12 16 14 22 25 22 26
REMARK Flexibility Score: inf
ROOT
ATOM      1  O   UNL     1     -10.076 205.636 117.670  1.00  0.00    -0.267 OA
ATOM      2  C   UNL     1     -10.135 205.911 116.491  1.00  0.00     0.276 C 
ATOM      3  C   UNL     1     -11.346 205.675 115.579  1.00  0.00     0.158 C 
ATOM      4  N   UNL     1     -12.504 205.182 115.882  1.00  0.00    -0.169 NA
ATOM      5  C   UNL     1     -10.940 206.124 114.252  1.00  0.00     0.032 A 
ATOM      6  C   UNL     1      -9.633 206.591 114.373  1.00  0.00     0.051 A 
ATOM      7  N   UNL     1      -9.169 206.468 115.679  1.00  0.00    -0.320 N 
ATOM      8  C   UNL     1      -8.950 207.092 113.287  1.00  0.00     0.028 A 
ATOM      9  C   UNL     1      -9.624 207.116 112.056  1.00  0.00     0.018 A 
ATOM     10  C   UNL     1     -10.957 206.642 111.935  1.00  0.00     0.060 A 
ATOM     11  C   UNL     1     -11.629 206.134 113.057  1.00  0.00     0.028 A 
ATOM     12  H   UNL     1      -8.253 206.728 116.014  1.00  0.00     0.170 HD
ENDROOT
BRANCH   4  13
ATOM     13  N   UNL     1     -12.694 204.847 117.184  1.00  0.00    -0.278 N 
ATOM     14  H   UNL     1     -11.890 204.688 117.802  1.00  0.00     0.190 HD
BRANCH  13  15
ATOM     15  C   UNL     1     -13.884 204.198 117.562  1.00  0.00     0.056 A 
ATOM     16  C   UNL     1     -14.704 203.638 116.571  1.00  0.00     0.029 A 
ATOM     17  C   UNL     1     -14.242 204.015 118.906  1.00  0.00     0.029 A 
ATOM     18  C   UNL     1     -15.870 202.943 116.908  1.00  0.00     0.024 A 
ATOM     19  C   UNL     1     -15.405 203.322 119.256  1.00  0.00     0.024 A 
ATOM     20  C   UNL     1     -16.209 202.782 118.254  1.00  0.00     0.082 A 
BRANCH  20  21
ATOM     21  S   UNL     1     -17.692 201.924 118.683  1.00  0.00     0.238 S 
ATOM     22  O   UNL     1     -17.393 200.924 119.681  1.00  0.00    -0.207 OA
ATOM     23  O   UNL     1     -18.438 201.620 117.484  1.00  0.00    -0.207 OA
BRANCH  21  24
ATOM     24  N   UNL     1     -18.568 203.119 119.475  1.00  0.00    -0.225 NA
ATOM     25  H   UNL     1     -19.418 203.331 118.952  1.00  0.00     0.137 HD
ATOM     26  H   UNL     1     -18.732 202.844 120.443  1.00  0.00     0.137 HD
ENDBRANCH  21  24
ENDBRANCH  20  21
ENDBRANCH  13  15
ENDBRANCH   4  13
BRANCH  10  27
ATOM     27  C   UNL     1     -11.687 206.657 110.638  1.00  0.00     0.338 C 
ATOM     28  O   UNL     1     -11.372 207.368 109.699  1.00  0.00    -0.246 OA
BRANCH  27  29
ATOM     29  O   UNL     1     -12.726 205.785 110.668  1.00  0.00    -0.462 OA
BRANCH  29  30
ATOM     30  C   UNL     1     -13.989 206.306 110.221  1.00  0.00     0.236 C 
BRANCH  30  31
ATOM     31  C   UNL     1     -15.146 205.752 111.065  1.00  0.00     0.021 C 
ATOM     32  C   UNL     1     -15.673 206.802 112.044  1.00  0.00     0.011 C 
ATOM     33  C   UNL     1     -14.703 204.498 111.815  1.00  0.00     0.011 C 
ENDBRANCH  30  31
ENDBRANCH  29  30
ENDBRANCH  27  29
ENDBRANCH  10  27
TORSDOF 8
ENDMDL
MODEL 2
REMARK minimizedAffinity -8.8650732
REMARK minimizedRMSD -1
REMARK SMILES CC(C)COC(=O)c1ccc2c(c1)/C(=N/Nc1ccc(S(N)(=O)=O)cc1)C(=O)N2
REMARK SMILES IDX 28 1 27 2 14 3 15 4 12 5 11 6 29 7 10 8 9 9 8 10 13 11 16 13
REMARK SMILES IDX 17 15 18 16 26 17 19 18 25 19 20 20 21 21 23 22 24 23 22 24
REMARK SMILES IDX 6 27 7 28 5 29 4 30 2 31 1 32 3 33
REMARK H PARENT 29 12 16 14 22 25 22 26
REMARK Flexibility Score: inf
ROOT
ATOM      1  O   UNL     1     -10.372 205.373 117.689  1.00  0.00    -0.267 OA
ATOM      2  C   UNL     1     -10.528 205.628 116.515  1.00  0.00     0.276 C 
ATOM      3  C   UNL     1     -11.803 205.361 115.705  1.00  0.00     0.158 C 
ATOM      4  N   UNL     1     -12.927 204.859 116.105  1.00  0.00    -0.169 NA
ATOM      5  C   UNL     1     -11.509 205.794 114.343  1.00  0.00     0.032 A 
ATOM      6  C   UNL     1     -10.203 206.280 114.354  1.00  0.00     0.051 A 
ATOM      7  N   UNL     1      -9.637 206.184 115.621  1.00  0.00    -0.320 N 
ATOM      8  C   UNL     1      -9.615 206.771 113.210  1.00  0.00     0.028 A 
ATOM      9  C   UNL     1     -10.383 206.767 112.036  1.00  0.00     0.018 A 
ATOM     10  C   UNL     1     -11.715 206.274 112.027  1.00  0.00     0.060 A 
ATOM     11  C   UNL     1     -12.290 205.775 113.206  1.00  0.00     0.028 A 
ATOM     12  H   UNL     1      -8.700 206.461 115.878  1.00  0.00     0.170 HD
ENDROOT
BRANCH   4  13
ATOM     13  N   UNL     1     -13.009 204.542 117.423  1.00  0.00    -0.278 N 
ATOM     14  H   UNL     1     -12.176 204.585 118.020  1.00  0.00     0.190 HD
BRANCH  13  15
ATOM     15  C   UNL     1     -14.021 203.667 117.859  1.00  0.00     0.056 A 
ATOM     16  C   UNL     1     -14.550 203.819 119.149  1.00  0.00     0.029 A 
ATOM     17  C   UNL     1     -14.582 202.694 117.019  1.00  0.00     0.029 A 
ATOM     18  C   UNL     1     -15.589 203.000 119.604  1.00  0.00     0.024 A 
ATOM     19  C   UNL     1     -15.621 201.870 117.461  1.00  0.00     0.024 A 
ATOM     20  C   UNL     1     -16.125 202.033 118.750  1.00  0.00     0.082 A 
BRANCH  20  21
ATOM     21  S   UNL     1     -17.422 200.982 119.328  1.00  0.00     0.238 S 
ATOM     22  O   UNL     1     -18.663 201.364 118.694  1.00  0.00    -0.207 OA
ATOM     23  O   UNL     1     -17.305 200.812 120.758  1.00  0.00    -0.207 OA
BRANCH  21  24
ATOM     24  N   UNL     1     -16.996 199.503 118.655  1.00  0.00    -0.225 NA
ATOM     25  H   UNL     1     -16.783 198.833 119.395  1.00  0.00     0.137 HD
ATOM     26  H   UNL     1     -17.723 199.194 118.010  1.00  0.00     0.137 HD
ENDBRANCH  21  24
ENDBRANCH  20  21
ENDBRANCH  13  15
ENDBRANCH   4  13
BRANCH  10  27
ATOM     27  C   UNL     1     -12.545 206.258 110.791  1.00  0.00     0.338 C 
ATOM     28  O   UNL     1     -12.219 206.817 109.757  1.00  0.00    -0.246 OA
BRANCH  27  29
ATOM     29  O   UNL     1     -13.685 205.552 110.994  1.00  0.00    -0.462 OA
BRANCH  29  30
ATOM     30  C   UNL     1     -14.910 206.273 110.784  1.00  0.00     0.236 C 
BRANCH  30  31
ATOM     31  C   UNL     1     -15.848 206.135 111.992  1.00  0.00     0.021 C 
ATOM     32  C   UNL     1     -15.902 204.689 112.490  1.00  0.00     0.011 C 
ATOM     33  C   UNL     1     -17.249 206.629 111.635  1.00  0.00     0.011 C 
ENDBRANCH  30  31
ENDBRANCH  29  30
ENDBRANCH  27  29
ENDBRANCH  10  27
TORSDOF 8
ENDMDL
MODEL 3
REMARK minimizedAffinity -8.48088837
REMARK minimizedRMSD -1
REMARK SMILES CC(C)COC(=O)c1ccc2c(c1)/C(=N/Nc1ccc(S(N)(=O)=O)cc1)C(=O)N2
REMARK SMILES IDX 28 1 27 2 14 3 15 4 12 5 11 6 29 7 10 8 9 9 8 10 13 11 16 13
REMARK SMILES IDX 17 15 18 16 26 17 19 18 25 19 20 20 21 21 23 22 24 23 22 24
REMARK SMILES IDX 6 27 7 28 5 29 4 30 2 31 1 32 3 33
REMARK H PARENT 29 12 16 14 22 25 22 26
REMARK Flexibility Score: inf
ROOT
ATOM      1  O   UNL     1     -14.201 204.014 119.298  1.00  0.00    -0.267 OA
ATOM      2  C   UNL     1     -14.420 204.641 118.285  1.00  0.00     0.276 C 
ATOM      3  C   UNL     1     -15.411 204.242 117.184  1.00  0.00     0.158 C 
ATOM      4  N   UNL     1     -16.197 203.214 117.135  1.00  0.00    -0.169 NA
ATOM      5  C   UNL     1     -15.304 205.272 116.157  1.00  0.00     0.032 A 
ATOM      6  C   UNL     1     -14.361 206.191 116.613  1.00  0.00     0.051 A 
ATOM      7  N   UNL     1     -13.851 205.821 117.854  1.00  0.00    -0.320 N 
ATOM      8  C   UNL     1     -14.025 207.299 115.867  1.00  0.00     0.028 A 
ATOM      9  C   UNL     1     -14.673 207.467 114.634  1.00  0.00     0.018 A 
ATOM     10  C   UNL     1     -15.635 206.532 114.172  1.00  0.00     0.060 A 
ATOM     11  C   UNL     1     -15.958 205.409 114.950  1.00  0.00     0.028 A 
ATOM     12  H   UNL     1     -13.150 206.319 118.383  1.00  0.00     0.170 HD
ENDROOT
BRANCH   4  13
ATOM     13  N   UNL     1     -16.167 202.382 118.208  1.00  0.00    -0.278 N 
ATOM     14  H   UNL     1     -15.588 201.535 118.192  1.00  0.00     0.190 HD
BRANCH  13  15
ATOM     15  C   UNL     1     -17.270 202.344 119.081  1.00  0.00     0.056 A 
ATOM     16  C   UNL     1     -18.561 202.216 118.550  1.00  0.00     0.029 A 
ATOM     17  C   UNL     1     -17.120 202.345 120.476  1.00  0.00     0.029 A 
ATOM     18  C   UNL     1     -19.680 202.126 119.385  1.00  0.00     0.024 A 
ATOM     19  C   UNL     1     -18.229 202.256 121.322  1.00  0.00     0.024 A 
ATOM     20  C   UNL     1     -19.504 202.138 120.771  1.00  0.00     0.082 A 
BRANCH  20  21
ATOM     21  S   UNL     1     -20.915 202.047 121.830  1.00  0.00     0.238 S 
ATOM     22  O   UNL     1     -21.407 200.689 121.853  1.00  0.00    -0.207 OA
ATOM     23  O   UNL     1     -21.779 203.178 121.580  1.00  0.00    -0.207 OA
BRANCH  21  24
ATOM     24  N   UNL     1     -20.234 202.317 123.341  1.00  0.00    -0.225 NA
ATOM     25  H   UNL     1     -20.599 203.184 123.736  1.00  0.00     0.137 HD
ATOM     26  H   UNL     1     -20.370 201.499 123.934  1.00  0.00     0.137 HD
ENDBRANCH  21  24
ENDBRANCH  20  21
ENDBRANCH  13  15
ENDBRANCH   4  13
BRANCH  10  27
ATOM     27  C   UNL     1     -16.331 206.691 112.865  1.00  0.00     0.338 C 
ATOM     28  O   UNL     1     -17.543 206.634 112.740  1.00  0.00    -0.246 OA
BRANCH  27  29
ATOM     29  O   UNL     1     -15.432 206.900 111.871  1.00  0.00    -0.462 OA
BRANCH  29  30
ATOM     30  C   UNL     1     -15.298 205.832 110.920  1.00  0.00     0.236 C 
BRANCH  30  31
ATOM     31  C   UNL     1     -13.997 205.048 111.148  1.00  0.00     0.021 C 
ATOM     32  C   UNL     1     -14.230 203.834 112.050  1.00  0.00     0.011 C 
ATOM     33  C   UNL     1     -12.926 205.958 111.745  1.00  0.00     0.011 C 
ENDBRANCH  30  31
ENDBRANCH  29  30
ENDBRANCH  27  29
ENDBRANCH  10  27
TORSDOF 8
ENDMDL
MODEL 4
REMARK minimizedAffinity -8.47158527
REMARK minimizedRMSD -1
REMARK SMILES CC(C)COC(=O)c1ccc2c(c1)/C(=N/Nc1ccc(S(N)(=O)=O)cc1)C(=O)N2
REMARK SMILES IDX 28 1 27 2 14 3 15 4 12 5 11 6 29 7 10 8 9 9 8 10 13 11 16 13
REMARK SMILES IDX 17 15 18 16 26 17 19 18 25 19 20 20 21 21 23 22 24 23 22 24
REMARK SMILES IDX 6 27 7 28 5 29 4 30 2 31 1 32 3 33
REMARK H PARENT 29 12 16 14 22 25 22 26
REMARK Flexibility Score: inf
ROOT
ATOM      1  O   UNL     1     -12.947 205.586 119.304  1.00  0.00    -0.267 OA
ATOM      2  C   UNL     1     -12.753 205.803 118.128  1.00  0.00     0.276 C 
ATOM      3  C   UNL     1     -12.997 204.809 116.985  1.00  0.00     0.158 C 
ATOM      4  N   UNL     1     -13.466 203.604 117.045  1.00  0.00    -0.169 NA
ATOM      5  C   UNL     1     -12.588 205.495 115.765  1.00  0.00     0.032 A 
ATOM      6  C   UNL     1     -12.162 206.766 116.148  1.00  0.00     0.051 A 
ATOM      7  N   UNL     1     -12.263 206.942 117.524  1.00  0.00    -0.320 N 
ATOM      8  C   UNL     1     -11.707 207.676 115.219  1.00  0.00     0.028 A 
ATOM      9  C   UNL     1     -11.692 207.275 113.875  1.00  0.00     0.018 A 
ATOM     10  C   UNL     1     -12.128 205.980 113.487  1.00  0.00     0.060 A 
ATOM     11  C   UNL     1     -12.585 205.071 114.452  1.00  0.00     0.028 A 
ATOM     12  H   UNL     1     -12.007 207.771 118.040  1.00  0.00     0.170 HD
ENDROOT
BRANCH   4  13
ATOM     13  N   UNL     1     -13.815 203.155 118.279  1.00  0.00    -0.278 N 
ATOM     14  H   UNL     1     -13.161 202.587 118.829  1.00  0.00     0.190 HD
BRANCH  13  15
ATOM     15  C   UNL     1     -15.176 202.978 118.587  1.00  0.00     0.056 A 
ATOM     16  C   UNL     1     -16.090 202.748 117.549  1.00  0.00     0.029 A 
ATOM     17  C   UNL     1     -15.644 202.939 119.910  1.00  0.00     0.029 A 
ATOM     18  C   UNL     1     -17.444 202.519 117.818  1.00  0.00     0.024 A 
ATOM     19  C   UNL     1     -16.995 202.711 120.191  1.00  0.00     0.024 A 
ATOM     20  C   UNL     1     -17.887 202.494 119.142  1.00  0.00     0.082 A 
BRANCH  20  21
ATOM     21  S   UNL     1     -19.599 202.228 119.485  1.00  0.00     0.238 S 
ATOM     22  O   UNL     1     -19.728 201.250 120.541  1.00  0.00    -0.207 OA
ATOM     23  O   UNL     1     -20.329 202.124 118.243  1.00  0.00    -0.207 OA
BRANCH  21  24
ATOM     24  N   UNL     1     -20.051 203.698 120.160  1.00  0.00    -0.225 NA
ATOM     25  H   UNL     1     -20.741 204.156 119.564  1.00  0.00     0.137 HD
ATOM     26  H   UNL     1     -20.359 203.558 121.122  1.00  0.00     0.137 HD
ENDBRANCH  21  24
ENDBRANCH  20  21
ENDBRANCH  13  15
ENDBRANCH   4  13
BRANCH  10  27
ATOM     27  C   UNL     1     -12.118 205.535 112.066  1.00  0.00     0.338 C 
ATOM     28  O   UNL     1     -11.131 205.597 111.351  1.00  0.00    -0.246 OA
BRANCH  27  29
ATOM     29  O   UNL     1     -13.340 205.069 111.705  1.00  0.00    -0.462 OA
BRANCH  29  30
ATOM     30  C   UNL     1     -14.316 206.072 111.378  1.00  0.00     0.236 C 
BRANCH  30  31
ATOM     31  C   UNL     1     -15.574 205.922 112.245  1.00  0.00     0.021 C 
ATOM     32  C   UNL     1     -15.849 204.454 112.578  1.00  0.00     0.011 C 
ATOM     33  C   UNL     1     -16.780 206.544 111.543  1.00  0.00     0.011 C 
ENDBRANCH  30  31
ENDBRANCH  29  30
ENDBRANCH  27  29
ENDBRANCH  10  27
TORSDOF 8
ENDMDL
MODEL 5
REMARK minimizedAffinity -8.45966148
REMARK minimizedRMSD -1
REMARK SMILES CC(C)COC(=O)c1ccc2c(c1)/C(=N/Nc1ccc(S(N)(=O)=O)cc1)C(=O)N2
REMARK SMILES IDX 28 1 27 2 14 3 15 4 12 5 11 6 29 7 10 8 9 9 8 10 13 11 16 13
REMARK SMILES IDX 17 15 18 16 26 17 19 18 25 19 20 20 21 21 23 22 24 23 22 24
REMARK SMILES IDX 6 27 7 28 5 29 4 30 2 31 1 32 3 33
REMARK H PARENT 29 12 16 14 22 25 22 26
REMARK Flexibility Score: inf
ROOT
ATOM      1  O   UNL     1     -11.140 203.600 118.236  1.00  0.00    -0.267 OA
ATOM      2  C   UNL     1     -11.336 204.085 117.143  1.00  0.00     0.276 C 
ATOM      3  C   UNL     1     -12.701 204.215 116.457  1.00  0.00     0.158 C 
ATOM      4  N   UNL     1     -13.868 203.873 116.902  1.00  0.00    -0.169 NA
ATOM      5  C   UNL     1     -12.438 204.818 115.155  1.00  0.00     0.032 A 
ATOM      6  C   UNL     1     -11.063 205.035 115.089  1.00  0.00     0.051 A 
ATOM      7  N   UNL     1     -10.425 204.610 116.250  1.00  0.00    -0.320 N 
ATOM      8  C   UNL     1     -10.482 205.601 113.976  1.00  0.00     0.028 A 
ATOM      9  C   UNL     1     -11.330 205.952 112.914  1.00  0.00     0.018 A 
ATOM     10  C   UNL     1     -12.730 205.732 112.984  1.00  0.00     0.060 A 
ATOM     11  C   UNL     1     -13.297 205.152 114.128  1.00  0.00     0.028 A 
ATOM     12  H   UNL     1      -9.434 204.653 116.436  1.00  0.00     0.170 HD
ENDROOT
BRANCH   4  13
ATOM     13  N   UNL     1     -13.904 203.350 118.154  1.00  0.00    -0.278 N 
ATOM     14  H   UNL     1     -13.134 202.763 118.494  1.00  0.00     0.190 HD
BRANCH  13  15
ATOM     15  C   UNL     1     -15.149 203.130 118.773  1.00  0.00     0.056 A 
ATOM     16  C   UNL     1     -15.285 203.378 120.146  1.00  0.00     0.029 A 
ATOM     17  C   UNL     1     -16.288 202.750 118.048  1.00  0.00     0.029 A 
ATOM     18  C   UNL     1     -16.517 203.218 120.790  1.00  0.00     0.024 A 
ATOM     19  C   UNL     1     -17.525 202.587 118.679  1.00  0.00     0.024 A 
ATOM     20  C   UNL     1     -17.634 202.830 120.047  1.00  0.00     0.082 A 
BRANCH  20  21
ATOM     21  S   UNL     1     -19.187 202.605 120.859  1.00  0.00     0.238 S 
ATOM     22  O   UNL     1     -19.009 202.771 122.283  1.00  0.00    -0.207 OA
ATOM     23  O   UNL     1     -19.866 201.463 120.294  1.00  0.00    -0.207 OA
BRANCH  21  24
ATOM     24  N   UNL     1     -20.048 203.952 120.342  1.00  0.00    -0.225 NA
ATOM     25  H   UNL     1     -20.849 203.658 119.782  1.00  0.00     0.137 HD
ATOM     26  H   UNL     1     -20.290 204.536 121.141  1.00  0.00     0.137 HD
ENDBRANCH  21  24
ENDBRANCH  20  21
ENDBRANCH  13  15
ENDBRANCH   4  13
BRANCH  10  27
ATOM     27  C   UNL     1     -13.646 206.096 111.866  1.00  0.00     0.338 C 
ATOM     28  O   UNL     1     -13.393 205.873 110.694  1.00  0.00    -0.246 OA
BRANCH  27  29
ATOM     29  O   UNL     1     -14.764 206.696 112.345  1.00  0.00    -0.462 OA
BRANCH  29  30
ATOM     30  C   UNL     1     -15.829 206.873 111.397  1.00  0.00     0.236 C 
BRANCH  30  31
ATOM     31  C   UNL     1     -17.094 206.124 111.841  1.00  0.00     0.021 C 
ATOM     32  C   UNL     1     -18.355 206.940 111.547  1.00  0.00     0.011 C 
ATOM     33  C   UNL     1     -17.015 205.781 113.327  1.00  0.00     0.011 C 
ENDBRANCH  30  31
ENDBRANCH  29  30
ENDBRANCH  27  29
ENDBRANCH  10  27
TORSDOF 8
ENDMDL
MODEL 6
REMARK minimizedAffinity -8.03480816
REMARK minimizedRMSD -1
REMARK SMILES CC(C)COC(=O)c1ccc2c(c1)/C(=N/Nc1ccc(S(N)(=O)=O)cc1)C(=O)N2
REMARK SMILES IDX 28 1 27 2 14 3 15 4 12 5 11 6 29 7 10 8 9 9 8 10 13 11 16 13
REMARK SMILES IDX 17 15 18 16 26 17 19 18 25 19 20 20 21 21 23 22 24 23 22 24
REMARK SMILES IDX 6 27 7 28 5 29 4 30 2 31 1 32 3 33
REMARK H PARENT 29 12 16 14 22 25 22 26
REMARK Flexibility Score: inf
ROOT
ATOM      1  O   UNL     1     -15.250 203.311 113.064  1.00  0.00    -0.267 OA
ATOM      2  C   UNL     1     -14.306 204.070 113.012  1.00  0.00     0.276 C 
ATOM      3  C   UNL     1     -13.617 204.720 114.219  1.00  0.00     0.158 C 
ATOM      4  N   UNL     1     -13.878 204.571 115.478  1.00  0.00    -0.169 NA
ATOM      5  C   UNL     1     -12.570 205.573 113.669  1.00  0.00     0.032 A 
ATOM      6  C   UNL     1     -12.626 205.428 112.284  1.00  0.00     0.051 A 
ATOM      7  N   UNL     1     -13.636 204.549 111.906  1.00  0.00    -0.320 N 
ATOM      8  C   UNL     1     -11.758 206.109 111.459  1.00  0.00     0.028 A 
ATOM      9  C   UNL     1     -10.814 206.950 112.068  1.00  0.00     0.018 A 
ATOM     10  C   UNL     1     -10.757 207.095 113.479  1.00  0.00     0.060 A 
ATOM     11  C   UNL     1     -11.655 206.392 114.298  1.00  0.00     0.028 A 
ATOM     12  H   UNL     1     -13.879 204.290 110.961  1.00  0.00     0.170 HD
ENDROOT
BRANCH   4  13
ATOM     13  N   UNL     1     -14.879 203.708 115.787  1.00  0.00    -0.278 N 
ATOM     14  H   UNL     1     -15.667 203.573 115.143  1.00  0.00     0.190 HD
BRANCH  13  15
ATOM     15  C   UNL     1     -15.149 203.422 117.138  1.00  0.00     0.056 A 
ATOM     16  C   UNL     1     -14.403 204.063 118.138  1.00  0.00     0.029 A 
ATOM     17  C   UNL     1     -16.199 202.576 117.529  1.00  0.00     0.029 A 
ATOM     18  C   UNL     1     -14.672 203.842 119.493  1.00  0.00     0.024 A 
ATOM     19  C   UNL     1     -16.478 202.348 118.879  1.00  0.00     0.024 A 
ATOM     20  C   UNL     1     -15.717 202.989 119.855  1.00  0.00     0.082 A 
BRANCH  20  21
ATOM     21  S   UNL     1     -16.046 202.690 121.565  1.00  0.00     0.238 S 
ATOM     22  O   UNL     1     -14.869 203.008 122.339  1.00  0.00    -0.207 OA
ATOM     23  O   UNL     1     -16.750 201.437 121.709  1.00  0.00    -0.207 OA
BRANCH  21  24
ATOM     24  N   UNL     1     -17.168 203.889 121.918  1.00  0.00    -0.225 NA
ATOM     25  H   UNL     1     -18.061 203.465 122.172  1.00  0.00     0.137 HD
ATOM     26  H   UNL     1     -16.791 204.520 122.624  1.00  0.00     0.137 HD
ENDBRANCH  21  24
ENDBRANCH  20  21
ENDBRANCH  13  15
ENDBRANCH   4  13
BRANCH  10  27
ATOM     27  C   UNL     1      -9.765 207.984 114.145  1.00  0.00     0.338 C 
ATOM     28  O   UNL     1      -9.799 208.255 115.333  1.00  0.00    -0.246 OA
BRANCH  27  29
ATOM     29  O   UNL     1      -8.853 208.432 113.247  1.00  0.00    -0.462 OA
BRANCH  29  30
ATOM     30  C   UNL     1      -7.547 208.715 113.774  1.00  0.00     0.236 C 
BRANCH  30  31
ATOM     31  C   UNL     1      -6.502 207.736 113.218  1.00  0.00     0.021 C 
ATOM     32  C   UNL     1      -6.997 207.062 111.938  1.00  0.00     0.011 C 
ATOM     33  C   UNL     1      -6.144 206.687 114.269  1.00  0.00     0.011 C 
ENDBRANCH  30  31
ENDBRANCH  29  30
ENDBRANCH  27  29
ENDBRANCH  10  27
TORSDOF 8
ENDMDL
MODEL 7
REMARK minimizedAffinity -8.01783276
REMARK minimizedRMSD -1
REMARK SMILES CC(C)COC(=O)c1ccc2c(c1)/C(=N/Nc1ccc(S(N)(=O)=O)cc1)C(=O)N2
REMARK SMILES IDX 28 1 27 2 14 3 15 4 12 5 11 6 29 7 10 8 9 9 8 10 13 11 16 13
REMARK SMILES IDX 17 15 18 16 26 17 19 18 25 19 20 20 21 21 23 22 24 23 22 24
REMARK SMILES IDX 6 27 7 28 5 29 4 30 2 31 1 32 3 33
REMARK H PARENT 29 12 16 14 22 25 22 26
REMARK Flexibility Score: inf
ROOT
ATOM      1  O   UNL     1     -15.583 204.366 112.298  1.00  0.00    -0.267 OA
ATOM      2  C   UNL     1     -14.530 204.922 112.073  1.00  0.00     0.276 C 
ATOM      3  C   UNL     1     -13.419 205.177 113.100  1.00  0.00     0.158 C 
ATOM      4  N   UNL     1     -13.375 204.838 114.348  1.00  0.00    -0.169 NA
ATOM      5  C   UNL     1     -12.375 205.902 112.385  1.00  0.00     0.032 A 
ATOM      6  C   UNL     1     -12.818 206.045 111.071  1.00  0.00     0.051 A 
ATOM      7  N   UNL     1     -14.072 205.470 110.894  1.00  0.00    -0.320 N 
ATOM      8  C   UNL     1     -12.053 206.693 110.127  1.00  0.00     0.028 A 
ATOM      9  C   UNL     1     -10.811 207.200 110.538  1.00  0.00     0.018 A 
ATOM     10  C   UNL     1     -10.360 207.051 111.876  1.00  0.00     0.060 A 
ATOM     11  C   UNL     1     -11.159 206.390 112.821  1.00  0.00     0.028 A 
ATOM     12  H   UNL     1     -14.604 205.454 110.036  1.00  0.00     0.170 HD
ENDROOT
BRANCH   4  13
ATOM     13  N   UNL     1     -14.441 204.141 114.819  1.00  0.00    -0.278 N 
ATOM     14  H   UNL     1     -15.313 204.097 114.280  1.00  0.00     0.190 HD
BRANCH  13  15
ATOM     15  C   UNL     1     -14.579 203.949 116.207  1.00  0.00     0.056 A 
ATOM     16  C   UNL     1     -14.153 204.956 117.084  1.00  0.00     0.029 A 
ATOM     17  C   UNL     1     -15.206 202.815 116.746  1.00  0.00     0.029 A 
ATOM     18  C   UNL     1     -14.316 204.825 118.467  1.00  0.00     0.024 A 
ATOM     19  C   UNL     1     -15.376 202.672 118.126  1.00  0.00     0.024 A 
ATOM     20  C   UNL     1     -14.936 203.683 118.980  1.00  0.00     0.082 A 
BRANCH  20  21
ATOM     21  S   UNL     1     -15.125 203.503 120.727  1.00  0.00     0.238 S 
ATOM     22  O   UNL     1     -13.850 203.727 121.370  1.00  0.00    -0.207 OA
ATOM     23  O   UNL     1     -15.938 202.342 121.008  1.00  0.00    -0.207 OA
BRANCH  21  24
ATOM     24  N   UNL     1     -16.076 204.832 121.113  1.00  0.00    -0.225 NA
ATOM     25  H   UNL     1     -16.978 204.520 121.473  1.00  0.00     0.137 HD
ATOM     26  H   UNL     1     -15.567 205.451 121.744  1.00  0.00     0.137 HD
ENDBRANCH  21  24
ENDBRANCH  20  21
ENDBRANCH  13  15
ENDBRANCH   4  13
BRANCH  10  27
ATOM     27  C   UNL     1      -9.046 207.584 112.333  1.00  0.00     0.338 C 
ATOM     28  O   UNL     1      -7.982 207.039 112.092  1.00  0.00    -0.246 OA
BRANCH  27  29
ATOM     29  O   UNL     1      -9.218 208.730 113.038  1.00  0.00    -0.462 OA
BRANCH  29  30
ATOM     30  C   UNL     1      -8.493 208.813 114.276  1.00  0.00     0.236 C 
BRANCH  30  31
ATOM     31  C   UNL     1      -9.092 207.873 115.332  1.00  0.00     0.021 C 
ATOM     32  C   UNL     1     -10.419 208.413 115.869  1.00  0.00     0.011 C 
ATOM     33  C   UNL     1      -8.102 207.658 116.475  1.00  0.00     0.011 C 
ENDBRANCH  30  31
ENDBRANCH  29  30
ENDBRANCH  27  29
ENDBRANCH  10  27
TORSDOF 8
ENDMDL
MODEL 8
REMARK minimizedAffinity -7.91349268
REMARK minimizedRMSD -1
REMARK SMILES CC(C)COC(=O)c1ccc2c(c1)/C(=N/Nc1ccc(S(N)(=O)=O)cc1)C(=O)N2
REMARK SMILES IDX 28 1 27 2 14 3 15 4 12 5 11 6 29 7 10 8 9 9 8 10 13 11 16 13
REMARK SMILES IDX 17 15 18 16 26 17 19 18 25 19 20 20 21 21 23 22 24 23 22 24
REMARK SMILES IDX 6 27 7 28 5 29 4 30 2 31 1 32 3 33
REMARK H PARENT 29 12 16 14 22 25 22 26
REMARK Flexibility Score: inf
ROOT
ATOM      1  O   UNL     1      -8.176 207.922 117.342  1.00  0.00    -0.267 OA
ATOM      2  C   UNL     1      -8.464 207.742 116.178  1.00  0.00     0.276 C 
ATOM      3  C   UNL     1      -9.882 207.777 115.595  1.00  0.00     0.158 C 
ATOM      4  N   UNL     1     -11.000 208.023 116.197  1.00  0.00    -0.169 NA
ATOM      5  C   UNL     1      -9.737 207.469 114.176  1.00  0.00     0.032 A 
ATOM      6  C   UNL     1      -8.375 207.288 113.946  1.00  0.00     0.051 A 
ATOM      7  N   UNL     1      -7.637 207.451 115.114  1.00  0.00    -0.320 N 
ATOM      8  C   UNL     1      -7.897 206.982 112.691  1.00  0.00     0.028 A 
ATOM      9  C   UNL     1      -8.836 206.864 111.654  1.00  0.00     0.018 A 
ATOM     10  C   UNL     1     -10.223 207.051 111.890  1.00  0.00     0.060 A 
ATOM     11  C   UNL     1     -10.684 207.359 113.179  1.00  0.00     0.028 A 
ATOM     12  H   UNL     1      -6.635 207.360 115.204  1.00  0.00     0.170 HD
ENDROOT
BRANCH   4  13
ATOM     13  N   UNL     1     -10.919 208.315 117.521  1.00  0.00    -0.278 N 
ATOM     14  H   UNL     1     -10.126 208.854 117.886  1.00  0.00     0.190 HD
BRANCH  13  15
ATOM     15  C   UNL     1     -11.557 207.474 118.452  1.00  0.00     0.056 A 
ATOM     16  C   UNL     1     -12.895 207.109 118.241  1.00  0.00     0.029 A 
ATOM     17  C   UNL     1     -10.878 206.917 119.546  1.00  0.00     0.029 A 
ATOM     18  C   UNL     1     -13.551 206.238 119.117  1.00  0.00     0.024 A 
ATOM     19  C   UNL     1     -11.522 206.045 120.428  1.00  0.00     0.024 A 
ATOM     20  C   UNL     1     -12.855 205.703 120.204  1.00  0.00     0.082 A 
BRANCH  20  21
ATOM     21  S   UNL     1     -13.686 204.620 121.325  1.00  0.00     0.238 S 
ATOM     22  O   UNL     1     -14.869 205.276 121.833  1.00  0.00    -0.207 OA
ATOM     23  O   UNL     1     -12.719 203.990 122.193  1.00  0.00    -0.207 OA
BRANCH  21  24
ATOM     24  N   UNL     1     -14.234 203.410 120.297  1.00  0.00    -0.225 NA
ATOM     25  H   UNL     1     -13.788 202.524 120.535  1.00  0.00     0.137 HD
ATOM     26  H   UNL     1     -15.253 203.380 120.310  1.00  0.00     0.137 HD
ENDBRANCH  21  24
ENDBRANCH  20  21
ENDBRANCH  13  15
ENDBRANCH   4  13
BRANCH  10  27
ATOM     27  C   UNL     1     -11.235 206.927 110.804  1.00  0.00     0.338 C 
ATOM     28  O   UNL     1     -11.066 207.364 109.678  1.00  0.00    -0.246 OA
BRANCH  27  29
ATOM     29  O   UNL     1     -12.337 206.277 111.254  1.00  0.00    -0.462 OA
BRANCH  29  30
ATOM     30  C   UNL     1     -13.474 206.300 110.377  1.00  0.00     0.236 C 
BRANCH  30  31
ATOM     31  C   UNL     1     -14.606 205.412 110.914  1.00  0.00     0.021 C 
ATOM     32  C   UNL     1     -15.774 206.253 111.433  1.00  0.00     0.011 C 
ATOM     33  C   UNL     1     -14.081 204.492 112.014  1.00  0.00     0.011 C 
ENDBRANCH  30  31
ENDBRANCH  29  30
ENDBRANCH  27  29
ENDBRANCH  10  27
TORSDOF 8
ENDMDL
MODEL 9
REMARK minimizedAffinity -7.84001255
REMARK minimizedRMSD -1
REMARK SMILES CC(C)COC(=O)c1ccc2c(c1)/C(=N/Nc1ccc(S(N)(=O)=O)cc1)C(=O)N2
REMARK SMILES IDX 28 1 27 2 14 3 15 4 12 5 11 6 29 7 10 8 9 9 8 10 13 11 16 13
REMARK SMILES IDX 17 15 18 16 26 17 19 18 25 19 20 20 21 21 23 22 24 23 22 24
REMARK SMILES IDX 6 27 7 28 5 29 4 30 2 31 1 32 3 33
REMARK H PARENT 29 12 16 14 22 25 22 26
REMARK Flexibility Score: inf
ROOT
ATOM      1  O   UNL     1     -13.222 204.504 120.555  1.00  0.00    -0.267 OA
ATOM      2  C   UNL     1     -13.076 204.740 119.375  1.00  0.00     0.276 C 
ATOM      3  C   UNL     1     -13.816 204.041 118.227  1.00  0.00     0.158 C 
ATOM      4  N   UNL     1     -14.724 203.121 118.290  1.00  0.00    -0.169 NA
ATOM      5  C   UNL     1     -13.289 204.625 116.999  1.00  0.00     0.032 A 
ATOM      6  C   UNL     1     -12.349 205.579 117.384  1.00  0.00     0.051 A 
ATOM      7  N   UNL     1     -12.231 205.645 118.768  1.00  0.00    -0.320 N 
ATOM      8  C   UNL     1     -11.660 206.320 116.450  1.00  0.00     0.028 A 
ATOM      9  C   UNL     1     -11.945 206.079 115.097  1.00  0.00     0.018 A 
ATOM     10  C   UNL     1     -12.904 205.108 114.706  1.00  0.00     0.060 A 
ATOM     11  C   UNL     1     -13.591 204.364 115.678  1.00  0.00     0.028 A 
ATOM     12  H   UNL     1     -11.610 206.250 119.286  1.00  0.00     0.170 HD
ENDROOT
BRANCH   4  13
ATOM     13  N   UNL     1     -15.098 202.729 119.535  1.00  0.00    -0.278 N 
ATOM     14  H   UNL     1     -14.691 201.888 119.959  1.00  0.00     0.190 HD
BRANCH  13  15
ATOM     15  C   UNL     1     -16.368 203.094 120.019  1.00  0.00     0.056 A 
ATOM     16  C   UNL     1     -17.514 202.633 119.356  1.00  0.00     0.029 A 
ATOM     17  C   UNL     1     -16.533 203.840 121.197  1.00  0.00     0.029 A 
ATOM     18  C   UNL     1     -18.794 202.935 119.833  1.00  0.00     0.024 A 
ATOM     19  C   UNL     1     -17.806 204.148 121.684  1.00  0.00     0.024 A 
ATOM     20  C   UNL     1     -18.932 203.686 121.003  1.00  0.00     0.082 A 
BRANCH  20  21
ATOM     21  S   UNL     1     -20.546 204.088 121.597  1.00  0.00     0.238 S 
ATOM     22  O   UNL     1     -20.451 204.542 122.965  1.00  0.00    -0.207 OA
ATOM     23  O   UNL     1     -21.480 203.066 121.185  1.00  0.00    -0.207 OA
BRANCH  21  24
ATOM     24  N   UNL     1     -20.923 205.447 120.685  1.00  0.00    -0.225 NA
ATOM     25  H   UNL     1     -21.723 205.250 120.083  1.00  0.00     0.137 HD
ATOM     26  H   UNL     1     -21.051 206.251 121.298  1.00  0.00     0.137 HD
ENDBRANCH  21  24
ENDBRANCH  20  21
ENDBRANCH  13  15
ENDBRANCH   4  13
BRANCH  10  27
ATOM     27  C   UNL     1     -13.219 204.836 113.276  1.00  0.00     0.338 C 
ATOM     28  O   UNL     1     -12.432 205.039 112.367  1.00  0.00    -0.246 OA
BRANCH  27  29
ATOM     29  O   UNL     1     -14.478 204.347 113.152  1.00  0.00    -0.462 OA
BRANCH  29  30
ATOM     30  C   UNL     1     -15.230 204.843 112.033  1.00  0.00     0.236 C 
BRANCH  30  31
ATOM     31  C   UNL     1     -16.597 205.381 112.480  1.00  0.00     0.021 C 
ATOM     32  C   UNL     1     -17.033 206.572 111.625  1.00  0.00     0.011 C 
ATOM     33  C   UNL     1     -16.557 205.771 113.956  1.00  0.00     0.011 C 
ENDBRANCH  30  31
ENDBRANCH  29  30
ENDBRANCH  27  29
ENDBRANCH  10  27
TORSDOF 8
ENDMDL
