MODEL 1
REMARK minimizedAffinity -8.98440456
REMARK minimizedRMSD -1
REMARK SMILES NS(=O)(=O)c1ccc(N/N=C2\C(=O)Nc3ccc(C(=O)NCCc4c[nH]cn4)cc32)cc1
REMARK SMILES IDX 13 1 12 2 11 3 10 4 30 5 15 6 14 7 16 8 17 9 18 10 29 11
REMARK SMILES IDX 9 13 8 15 7 16 31 17 6 18 32 19 5 20 2 21 3 22 4 23 1 24
REMARK SMILES IDX 19 27 20 28 21 29 22 31 23 32 24 33 25 34 28 35 26 36 27 37
REMARK H PARENT 14 12 9 14 1 25 1 26 21 30 26 38
REMARK Flexibility Score: inf
ROOT
ATOM      1  O   UNL     1     -11.365 206.975 119.436  1.00  0.00    -0.267 OA
ATOM      2  C   UNL     1     -11.126 207.130 118.257  1.00  0.00     0.276 C 
ATOM      3  C   UNL     1     -11.819 206.389 117.106  1.00  0.00     0.158 C 
ATOM      4  N   UNL     1     -12.770 205.512 117.164  1.00  0.00    -0.169 NA
ATOM      5  C   UNL     1     -11.187 206.872 115.885  1.00  0.00     0.032 A 
ATOM      6  C   UNL     1     -10.232 207.810 116.274  1.00  0.00     0.051 A 
ATOM      7  N   UNL     1     -10.202 207.958 117.658  1.00  0.00    -0.320 N 
ATOM      8  C   UNL     1      -9.450 208.461 115.346  1.00  0.00     0.027 A 
ATOM      9  C   UNL     1      -9.662 208.144 113.997  1.00  0.00     0.016 A 
ATOM     10  C   UNL     1     -10.640 207.194 113.599  1.00  0.00     0.040 A 
ATOM     11  C   UNL     1     -11.415 206.537 114.564  1.00  0.00     0.026 A 
ATOM     12  H   UNL     1      -9.587 208.568 118.176  1.00  0.00     0.170 HD
ENDROOT
BRANCH   4  13
ATOM     13  N   UNL     1     -13.244 205.219 118.403  1.00  0.00    -0.278 N 
ATOM     14  H   UNL     1     -12.605 205.204 119.207  1.00  0.00     0.190 HD
BRANCH  13  15
ATOM     15  C   UNL     1     -14.363 204.372 118.522  1.00  0.00     0.056 A 
ATOM     16  C   UNL     1     -14.987 203.897 117.358  1.00  0.00     0.029 A 
ATOM     17  C   UNL     1     -14.825 203.909 119.763  1.00  0.00     0.029 A 
ATOM     18  C   UNL     1     -16.067 203.012 117.429  1.00  0.00     0.024 A 
ATOM     19  C   UNL     1     -15.906 203.027 119.849  1.00  0.00     0.024 A 
ATOM     20  C   UNL     1     -16.516 202.577 118.677  1.00  0.00     0.082 A 
BRANCH  20  21
ATOM     21  S   UNL     1     -17.881 201.450 118.770  1.00  0.00     0.238 S 
ATOM     22  O   UNL     1     -18.670 201.777 119.933  1.00  0.00    -0.207 OA
ATOM     23  O   UNL     1     -17.397 200.113 118.508  1.00  0.00    -0.207 OA
BRANCH  21  24
ATOM     24  N   UNL     1     -18.766 201.888 117.403  1.00  0.00    -0.225 NA
ATOM     25  H   UNL     1     -18.428 202.747 116.970  1.00  0.00     0.137 HD
ATOM     26  H   UNL     1     -18.764 201.104 116.749  1.00  0.00     0.137 HD
ENDBRANCH  21  24
ENDBRANCH  20  21
ENDBRANCH  13  15
ENDBRANCH   4  13
BRANCH  10  27
ATOM     27  C   UNL     1     -10.788 206.922 112.137  1.00  0.00     0.251 C 
ATOM     28  O   UNL     1      -9.838 207.098 111.382  1.00  0.00    -0.269 OA
ATOM     29  N   UNL     1     -12.022 206.500 111.707  1.00  0.00    -0.352 N 
ATOM     30  H   UNL     1     -12.837 206.640 112.303  1.00  0.00     0.163 HD
BRANCH  29  31
ATOM     31  C   UNL     1     -12.340 206.381 110.295  1.00  0.00     0.122 C 
BRANCH  31  32
ATOM     32  C   UNL     1     -13.849 206.408 110.044  1.00  0.00     0.079 C 
BRANCH  32  33
ATOM     33  C   UNL     1     -14.613 205.589 111.032  1.00  0.00     0.060 A 
ATOM     34  C   UNL     1     -15.875 205.794 111.546  1.00  0.00     0.107 A 
ATOM     35  N   UNL     1     -14.062 204.440 111.566  1.00  0.00    -0.242 NA
ATOM     36  N   UNL     1     -16.090 204.749 112.402  1.00  0.00    -0.351 N 
ATOM     37  C   UNL     1     -14.974 203.961 112.382  1.00  0.00     0.196 A 
ATOM     38  H   UNL     1     -16.922 204.583 112.953  1.00  0.00     0.167 HD
ENDBRANCH  32  33
ENDBRANCH  31  32
ENDBRANCH  29  31
ENDBRANCH  10  27
TORSDOF 8
ENDMDL
MODEL 2
REMARK minimizedAffinity -8.74009895
REMARK minimizedRMSD -1
REMARK SMILES NS(=O)(=O)c1ccc(N/N=C2\C(=O)Nc3ccc(C(=O)NCCc4c[nH]cn4)cc32)cc1
REMARK SMILES IDX 13 1 12 2 11 3 10 4 30 5 15 6 14 7 16 8 17 9 18 10 29 11
REMARK SMILES IDX 9 13 8 15 7 16 31 17 6 18 32 19 5 20 2 21 3 22 4 23 1 24
REMARK SMILES IDX 19 27 20 28 21 29 22 31 23 32 24 33 25 34 28 35 26 36 27 37
REMARK H PARENT 14 12 9 14 1 25 1 26 21 30 26 38
REMARK Flexibility Score: inf
ROOT
ATOM      1  O   UNL     1     -15.998 204.124 112.587  1.00  0.00    -0.267 OA
ATOM      2  C   UNL     1     -14.959 204.679 112.298  1.00  0.00     0.276 C 
ATOM      3  C   UNL     1     -13.794 204.938 113.262  1.00  0.00     0.158 C 
ATOM      4  N   UNL     1     -13.686 204.607 114.509  1.00  0.00    -0.169 NA
ATOM      5  C   UNL     1     -12.788 205.653 112.486  1.00  0.00     0.032 A 
ATOM      6  C   UNL     1     -13.300 205.787 111.197  1.00  0.00     0.051 A 
ATOM      7  N   UNL     1     -14.565 205.216 111.092  1.00  0.00    -0.320 N 
ATOM      8  C   UNL     1     -12.586 206.426 110.207  1.00  0.00     0.027 A 
ATOM      9  C   UNL     1     -11.323 206.926 110.552  1.00  0.00     0.016 A 
ATOM     10  C   UNL     1     -10.796 206.782 111.864  1.00  0.00     0.040 A 
ATOM     11  C   UNL     1     -11.548 206.139 112.856  1.00  0.00     0.026 A 
ATOM     12  H   UNL     1     -15.142 205.200 110.264  1.00  0.00     0.170 HD
ENDROOT
BRANCH   4  13
ATOM     13  N   UNL     1     -14.727 203.915 115.041  1.00  0.00    -0.278 N 
ATOM     14  H   UNL     1     -15.631 203.893 114.553  1.00  0.00     0.190 HD
BRANCH  13  15
ATOM     15  C   UNL     1     -14.805 203.769 116.439  1.00  0.00     0.056 A 
ATOM     16  C   UNL     1     -14.167 204.711 117.261  1.00  0.00     0.029 A 
ATOM     17  C   UNL     1     -15.578 202.768 117.047  1.00  0.00     0.029 A 
ATOM     18  C   UNL     1     -14.264 204.636 118.654  1.00  0.00     0.024 A 
ATOM     19  C   UNL     1     -15.681 202.679 118.438  1.00  0.00     0.024 A 
ATOM     20  C   UNL     1     -15.027 203.621 119.234  1.00  0.00     0.082 A 
BRANCH  20  21
ATOM     21  S   UNL     1     -15.157 203.527 120.999  1.00  0.00     0.238 S 
ATOM     22  O   UNL     1     -15.962 202.379 121.341  1.00  0.00    -0.207 OA
ATOM     23  O   UNL     1     -15.428 204.849 121.515  1.00  0.00    -0.207 OA
BRANCH  21  24
ATOM     24  N   UNL     1     -13.563 203.189 121.431  1.00  0.00    -0.225 NA
ATOM     25  H   UNL     1     -12.973 202.963 120.630  1.00  0.00     0.137 HD
ATOM     26  H   UNL     1     -13.196 203.978 121.965  1.00  0.00     0.137 HD
ENDBRANCH  21  24
ENDBRANCH  20  21
ENDBRANCH  13  15
ENDBRANCH   4  13
BRANCH  10  27
ATOM     27  C   UNL     1      -9.442 207.353 112.134  1.00  0.00     0.251 C 
ATOM     28  O   UNL     1      -8.455 206.877 111.583  1.00  0.00    -0.269 OA
ATOM     29  N   UNL     1      -9.376 208.392 113.029  1.00  0.00    -0.352 N 
ATOM     30  H   UNL     1     -10.156 208.561 113.663  1.00  0.00     0.163 HD
BRANCH  29  31
ATOM     31  C   UNL     1      -8.106 208.906 113.511  1.00  0.00     0.122 C 
BRANCH  31  32
ATOM     32  C   UNL     1      -8.050 208.955 115.039  1.00  0.00     0.079 C 
BRANCH  32  33
ATOM     33  C   UNL     1      -9.143 208.165 115.681  1.00  0.00     0.060 A 
ATOM     34  C   UNL     1      -9.092 206.920 116.269  1.00  0.00     0.107 A 
ATOM     35  N   UNL     1     -10.428 208.669 115.746  1.00  0.00    -0.242 NA
ATOM     36  N   UNL     1     -10.366 206.671 116.700  1.00  0.00    -0.351 N 
ATOM     37  C   UNL     1     -11.134 207.749 116.364  1.00  0.00     0.196 A 
ATOM     38  H   UNL     1     -10.688 205.841 117.181  1.00  0.00     0.167 HD
ENDBRANCH  32  33
ENDBRANCH  31  32
ENDBRANCH  29  31
ENDBRANCH  10  27
TORSDOF 8
ENDMDL
MODEL 3
REMARK minimizedAffinity -8.55938053
REMARK minimizedRMSD -1
REMARK SMILES NS(=O)(=O)c1ccc(N/N=C2\C(=O)Nc3ccc(C(=O)NCCc4c[nH]cn4)cc32)cc1
REMARK SMILES IDX 13 1 12 2 11 3 10 4 30 5 15 6 14 7 16 8 17 9 18 10 29 11
REMARK SMILES IDX 9 13 8 15 7 16 31 17 6 18 32 19 5 20 2 21 3 22 4 23 1 24
REMARK SMILES IDX 19 27 20 28 21 29 22 31 23 32 24 33 25 34 28 35 26 36 27 37
REMARK H PARENT 14 12 9 14 1 25 1 26 21 30 26 38
REMARK Flexibility Score: inf
ROOT
ATOM      1  O   UNL     1      -7.678 207.798 114.479  1.00  0.00    -0.267 OA
ATOM      2  C   UNL     1      -8.614 207.525 113.759  1.00  0.00     0.276 C 
ATOM      3  C   UNL     1     -10.012 207.112 114.239  1.00  0.00     0.158 C 
ATOM      4  N   UNL     1     -10.453 207.004 115.452  1.00  0.00    -0.169 NA
ATOM      5  C   UNL     1     -10.787 206.854 113.031  1.00  0.00     0.032 A 
ATOM      6  C   UNL     1      -9.940 207.104 111.953  1.00  0.00     0.051 A 
ATOM      7  N   UNL     1      -8.675 207.497 112.383  1.00  0.00    -0.320 N 
ATOM      8  C   UNL     1     -10.372 206.950 110.655  1.00  0.00     0.027 A 
ATOM      9  C   UNL     1     -11.698 206.540 110.467  1.00  0.00     0.016 A 
ATOM     10  C   UNL     1     -12.566 206.294 111.565  1.00  0.00     0.040 A 
ATOM     11  C   UNL     1     -12.098 206.445 112.877  1.00  0.00     0.026 A 
ATOM     12  H   UNL     1      -7.889 207.718 111.790  1.00  0.00     0.170 HD
ENDROOT
BRANCH   4  13
ATOM     13  N   UNL     1      -9.577 207.320 116.441  1.00  0.00    -0.278 N 
ATOM     14  H   UNL     1      -8.780 207.938 116.243  1.00  0.00     0.190 HD
BRANCH  13  15
ATOM     15  C   UNL     1      -9.366 206.398 117.485  1.00  0.00     0.056 A 
ATOM     16  C   UNL     1      -8.081 206.271 118.034  1.00  0.00     0.029 A 
ATOM     17  C   UNL     1     -10.414 205.667 118.062  1.00  0.00     0.029 A 
ATOM     18  C   UNL     1      -7.838 205.408 119.107  1.00  0.00     0.024 A 
ATOM     19  C   UNL     1     -10.186 204.797 119.133  1.00  0.00     0.024 A 
ATOM     20  C   UNL     1      -8.896 204.680 119.655  1.00  0.00     0.082 A 
BRANCH  20  21
ATOM     21  S   UNL     1      -8.593 203.591 121.019  1.00  0.00     0.238 S 
ATOM     22  O   UNL     1      -8.223 204.383 122.167  1.00  0.00    -0.207 OA
ATOM     23  O   UNL     1      -7.799 202.475 120.555  1.00  0.00    -0.207 OA
BRANCH  21  24
ATOM     24  N   UNL     1     -10.134 202.967 121.295  1.00  0.00    -0.225 NA
ATOM     25  H   UNL     1     -10.859 203.452 120.768  1.00  0.00     0.137 HD
ATOM     26  H   UNL     1     -10.121 201.966 121.095  1.00  0.00     0.137 HD
ENDBRANCH  21  24
ENDBRANCH  20  21
ENDBRANCH  13  15
ENDBRANCH   4  13
BRANCH  10  27
ATOM     27  C   UNL     1     -13.962 205.856 111.262  1.00  0.00     0.251 C 
ATOM     28  O   UNL     1     -14.445 206.072 110.156  1.00  0.00    -0.269 OA
ATOM     29  N   UNL     1     -14.652 205.241 112.278  1.00  0.00    -0.352 N 
ATOM     30  H   UNL     1     -14.326 205.339 113.238  1.00  0.00     0.163 HD
BRANCH  29  31
ATOM     31  C   UNL     1     -16.068 204.939 112.165  1.00  0.00     0.122 C 
BRANCH  31  32
ATOM     32  C   UNL     1     -16.902 205.715 113.186  1.00  0.00     0.079 C 
BRANCH  32  33
ATOM     33  C   UNL     1     -16.149 206.009 114.442  1.00  0.00     0.060 A 
ATOM     34  C   UNL     1     -15.946 205.210 115.546  1.00  0.00     0.107 A 
ATOM     35  N   UNL     1     -15.531 207.232 114.619  1.00  0.00    -0.242 NA
ATOM     36  N   UNL     1     -15.188 205.962 116.401  1.00  0.00    -0.351 N 
ATOM     37  C   UNL     1     -14.963 207.169 115.802  1.00  0.00     0.196 A 
ATOM     38  H   UNL     1     -14.851 205.681 117.313  1.00  0.00     0.167 HD
ENDBRANCH  32  33
ENDBRANCH  31  32
ENDBRANCH  29  31
ENDBRANCH  10  27
TORSDOF 8
ENDMDL
MODEL 4
REMARK minimizedAffinity -8.34606266
REMARK minimizedRMSD -1
REMARK SMILES NS(=O)(=O)c1ccc(N/N=C2\C(=O)Nc3ccc(C(=O)NCCc4c[nH]cn4)cc32)cc1
REMARK SMILES IDX 13 1 12 2 11 3 10 4 30 5 15 6 14 7 16 8 17 9 18 10 29 11
REMARK SMILES IDX 9 13 8 15 7 16 31 17 6 18 32 19 5 20 2 21 3 22 4 23 1 24
REMARK SMILES IDX 19 27 20 28 21 29 22 31 23 32 24 33 25 34 28 35 26 36 27 37
REMARK H PARENT 14 12 9 14 1 25 1 26 21 30 26 38
REMARK Flexibility Score: inf
ROOT
ATOM      1  O   UNL     1      -8.185 207.101 117.261  1.00  0.00    -0.267 OA
ATOM      2  C   UNL     1      -8.718 207.061 116.173  1.00  0.00     0.276 C 
ATOM      3  C   UNL     1     -10.156 206.597 115.906  1.00  0.00     0.158 C 
ATOM      4  N   UNL     1     -11.050 206.200 116.755  1.00  0.00    -0.169 NA
ATOM      5  C   UNL     1     -10.342 206.689 114.463  1.00  0.00     0.032 A 
ATOM      6  C   UNL     1      -9.145 207.171 113.937  1.00  0.00     0.051 A 
ATOM      7  N   UNL     1      -8.202 207.389 114.938  1.00  0.00    -0.320 N 
ATOM      8  C   UNL     1      -8.990 207.374 112.584  1.00  0.00     0.027 A 
ATOM      9  C   UNL     1     -10.088 207.080 111.764  1.00  0.00     0.016 A 
ATOM     10  C   UNL     1     -11.312 206.597 112.300  1.00  0.00     0.040 A 
ATOM     11  C   UNL     1     -11.440 206.388 113.680  1.00  0.00     0.026 A 
ATOM     12  H   UNL     1      -7.259 207.722 114.803  1.00  0.00     0.170 HD
ENDROOT
BRANCH   4  13
ATOM     13  N   UNL     1     -10.686 206.216 118.064  1.00  0.00    -0.278 N 
ATOM     14  H   UNL     1      -9.790 205.802 118.353  1.00  0.00     0.190 HD
BRANCH  13  15
ATOM     15  C   UNL     1     -11.690 206.201 119.051  1.00  0.00     0.056 A 
ATOM     16  C   UNL     1     -12.934 206.787 118.769  1.00  0.00     0.029 A 
ATOM     17  C   UNL     1     -11.526 205.540 120.277  1.00  0.00     0.029 A 
ATOM     18  C   UNL     1     -13.977 206.747 119.699  1.00  0.00     0.024 A 
ATOM     19  C   UNL     1     -12.559 205.496 121.219  1.00  0.00     0.024 A 
ATOM     20  C   UNL     1     -13.783 206.095 120.919  1.00  0.00     0.082 A 
BRANCH  20  21
ATOM     21  S   UNL     1     -15.106 206.038 122.097  1.00  0.00     0.238 S 
ATOM     22  O   UNL     1     -14.635 206.592 123.344  1.00  0.00    -0.207 OA
ATOM     23  O   UNL     1     -15.748 204.746 122.012  1.00  0.00    -0.207 OA
BRANCH  21  24
ATOM     24  N   UNL     1     -16.197 207.133 121.424  1.00  0.00    -0.225 NA
ATOM     25  H   UNL     1     -15.801 207.661 120.647  1.00  0.00     0.137 HD
ATOM     26  H   UNL     1     -17.040 206.625 121.151  1.00  0.00     0.137 HD
ENDBRANCH  21  24
ENDBRANCH  20  21
ENDBRANCH  13  15
ENDBRANCH   4  13
BRANCH  10  27
ATOM     27  C   UNL     1     -12.423 206.309 111.343  1.00  0.00     0.251 C 
ATOM     28  O   UNL     1     -12.302 206.601 110.158  1.00  0.00    -0.269 OA
ATOM     29  N   UNL     1     -13.558 205.740 111.866  1.00  0.00    -0.352 N 
ATOM     30  H   UNL     1     -13.724 205.779 112.871  1.00  0.00     0.163 HD
BRANCH  29  31
ATOM     31  C   UNL     1     -14.768 205.584 111.078  1.00  0.00     0.122 C 
BRANCH  31  32
ATOM     32  C   UNL     1     -15.971 205.207 111.943  1.00  0.00     0.079 C 
BRANCH  32  33
ATOM     33  C   UNL     1     -15.660 205.228 113.404  1.00  0.00     0.060 A 
ATOM     34  C   UNL     1     -15.894 206.219 114.332  1.00  0.00     0.107 A 
ATOM     35  N   UNL     1     -15.050 204.146 114.008  1.00  0.00    -0.242 NA
ATOM     36  N   UNL     1     -15.422 205.724 115.516  1.00  0.00    -0.351 N 
ATOM     37  C   UNL     1     -14.923 204.476 115.273  1.00  0.00     0.196 A 
ATOM     38  H   UNL     1     -15.435 206.192 116.413  1.00  0.00     0.167 HD
ENDBRANCH  32  33
ENDBRANCH  31  32
ENDBRANCH  29  31
ENDBRANCH  10  27
TORSDOF 8
ENDMDL
MODEL 5
REMARK minimizedAffinity -8.23681736
REMARK minimizedRMSD -1
REMARK SMILES NS(=O)(=O)c1ccc(N/N=C2\C(=O)Nc3ccc(C(=O)NCCc4c[nH]cn4)cc32)cc1
REMARK SMILES IDX 13 1 12 2 11 3 10 4 30 5 15 6 14 7 16 8 17 9 18 10 29 11
REMARK SMILES IDX 9 13 8 15 7 16 31 17 6 18 32 19 5 20 2 21 3 22 4 23 1 24
REMARK SMILES IDX 19 27 20 28 21 29 22 31 23 32 24 33 25 34 28 35 26 36 27 37
REMARK H PARENT 14 12 9 14 1 25 1 26 21 30 26 38
REMARK Flexibility Score: inf
ROOT
ATOM      1  O   UNL     1     -13.346 204.744 121.416  1.00  0.00    -0.267 OA
ATOM      2  C   UNL     1     -13.120 205.140 120.292  1.00  0.00     0.276 C 
ATOM      3  C   UNL     1     -13.739 204.570 119.009  1.00  0.00     0.158 C 
ATOM      4  N   UNL     1     -14.605 203.616 118.882  1.00  0.00    -0.169 NA
ATOM      5  C   UNL     1     -13.152 205.331 117.913  1.00  0.00     0.032 A 
ATOM      6  C   UNL     1     -12.289 206.261 118.490  1.00  0.00     0.051 A 
ATOM      7  N   UNL     1     -12.276 206.147 119.878  1.00  0.00    -0.320 N 
ATOM      8  C   UNL     1     -11.569 207.144 117.716  1.00  0.00     0.027 A 
ATOM      9  C   UNL     1     -11.748 207.069 116.328  1.00  0.00     0.016 A 
ATOM     10  C   UNL     1     -12.633 206.127 115.739  1.00  0.00     0.040 A 
ATOM     11  C   UNL     1     -13.345 205.232 116.548  1.00  0.00     0.026 A 
ATOM     12  H   UNL     1     -11.720 206.701 120.513  1.00  0.00     0.170 HD
ENDROOT
BRANCH   4  13
ATOM     13  N   UNL     1     -15.052 203.052 120.035  1.00  0.00    -0.278 N 
ATOM     14  H   UNL     1     -14.612 202.195 120.391  1.00  0.00     0.190 HD
BRANCH  13  15
ATOM     15  C   UNL     1     -16.404 203.215 120.394  1.00  0.00     0.056 A 
ATOM     16  C   UNL     1     -16.728 204.057 121.469  1.00  0.00     0.029 A 
ATOM     17  C   UNL     1     -17.451 202.641 119.658  1.00  0.00     0.029 A 
ATOM     18  C   UNL     1     -18.060 204.291 121.826  1.00  0.00     0.024 A 
ATOM     19  C   UNL     1     -18.787 202.862 120.005  1.00  0.00     0.024 A 
ATOM     20  C   UNL     1     -19.083 203.695 121.085  1.00  0.00     0.082 A 
BRANCH  20  21
ATOM     21  S   UNL     1     -20.771 203.995 121.531  1.00  0.00     0.238 S 
ATOM     22  O   UNL     1     -21.503 202.755 121.425  1.00  0.00    -0.207 OA
ATOM     23  O   UNL     1     -21.210 205.215 120.893  1.00  0.00    -0.207 OA
BRANCH  21  24
ATOM     24  N   UNL     1     -20.620 204.368 123.168  1.00  0.00    -0.225 NA
ATOM     25  H   UNL     1     -19.687 204.181 123.534  1.00  0.00     0.137 HD
ATOM     26  H   UNL     1     -20.898 205.341 123.307  1.00  0.00     0.137 HD
ENDBRANCH  21  24
ENDBRANCH  20  21
ENDBRANCH  13  15
ENDBRANCH   4  13
BRANCH  10  27
ATOM     27  C   UNL     1     -12.752 206.124 114.249  1.00  0.00     0.251 C 
ATOM     28  O   UNL     1     -12.882 207.181 113.642  1.00  0.00    -0.269 OA
ATOM     29  N   UNL     1     -12.732 204.898 113.630  1.00  0.00    -0.352 N 
ATOM     30  H   UNL     1     -12.908 204.055 114.176  1.00  0.00     0.163 HD
BRANCH  29  31
ATOM     31  C   UNL     1     -13.022 204.752 112.215  1.00  0.00     0.122 C 
BRANCH  31  32
ATOM     32  C   UNL     1     -14.366 204.063 111.973  1.00  0.00     0.079 C 
BRANCH  32  33
ATOM     33  C   UNL     1     -15.513 205.019 111.974  1.00  0.00     0.060 A 
ATOM     34  C   UNL     1     -15.653 206.217 111.308  1.00  0.00     0.107 A 
ATOM     35  N   UNL     1     -16.646 204.755 112.720  1.00  0.00    -0.242 NA
ATOM     36  N   UNL     1     -16.892 206.681 111.654  1.00  0.00    -0.351 N 
ATOM     37  C   UNL     1     -17.452 205.769 112.503  1.00  0.00     0.196 A 
ATOM     38  H   UNL     1     -17.322 207.541 111.341  1.00  0.00     0.167 HD
ENDBRANCH  32  33
ENDBRANCH  31  32
ENDBRANCH  29  31
ENDBRANCH  10  27
TORSDOF 8
ENDMDL
MODEL 6
REMARK minimizedAffinity -7.90396786
REMARK minimizedRMSD -1
REMARK SMILES NS(=O)(=O)c1ccc(N/N=C2\C(=O)Nc3ccc(C(=O)NCCc4c[nH]cn4)cc32)cc1
REMARK SMILES IDX 13 1 12 2 11 3 10 4 30 5 15 6 14 7 16 8 17 9 18 10 29 11
REMARK SMILES IDX 9 13 8 15 7 16 31 17 6 18 32 19 5 20 2 21 3 22 4 23 1 24
REMARK SMILES IDX 19 27 20 28 21 29 22 31 23 32 24 33 25 34 28 35 26 36 27 37
REMARK H PARENT 14 12 9 14 1 25 1 26 21 30 26 38
REMARK Flexibility Score: inf
ROOT
ATOM      1  O   UNL     1     -12.782 206.162 111.742  1.00  0.00    -0.267 OA
ATOM      2  C   UNL     1     -11.689 206.527 112.119  1.00  0.00     0.276 C 
ATOM      3  C   UNL     1     -11.376 207.114 113.502  1.00  0.00     0.158 C 
ATOM      4  N   UNL     1     -12.177 207.302 114.502  1.00  0.00    -0.169 NA
ATOM      5  C   UNL     1      -9.954 207.433 113.486  1.00  0.00     0.032 A 
ATOM      6  C   UNL     1      -9.475 207.060 112.231  1.00  0.00     0.051 A 
ATOM      7  N   UNL     1     -10.490 206.530 111.439  1.00  0.00    -0.320 N 
ATOM      8  C   UNL     1      -8.152 207.233 111.891  1.00  0.00     0.027 A 
ATOM      9  C   UNL     1      -7.311 207.793 112.862  1.00  0.00     0.016 A 
ATOM     10  C   UNL     1      -7.795 208.166 114.144  1.00  0.00     0.040 A 
ATOM     11  C   UNL     1      -9.149 207.991 114.461  1.00  0.00     0.026 A 
ATOM     12  H   UNL     1     -10.392 206.204 110.489  1.00  0.00     0.170 HD
ENDROOT
BRANCH   4  13
ATOM     13  N   UNL     1     -13.465 206.907 114.323  1.00  0.00    -0.278 N 
ATOM     14  H   UNL     1     -14.152 207.561 113.928  1.00  0.00     0.190 HD
BRANCH  13  15
ATOM     15  C   UNL     1     -14.005 205.931 115.183  1.00  0.00     0.056 A 
ATOM     16  C   UNL     1     -14.457 204.718 114.642  1.00  0.00     0.029 A 
ATOM     17  C   UNL     1     -14.022 206.088 116.577  1.00  0.00     0.029 A 
ATOM     18  C   UNL     1     -14.949 203.701 115.465  1.00  0.00     0.024 A 
ATOM     19  C   UNL     1     -14.515 205.080 117.412  1.00  0.00     0.024 A 
ATOM     20  C   UNL     1     -14.970 203.887 116.848  1.00  0.00     0.082 A 
BRANCH  20  21
ATOM     21  S   UNL     1     -15.587 202.596 117.894  1.00  0.00     0.238 S 
ATOM     22  O   UNL     1     -16.885 202.192 117.408  1.00  0.00    -0.207 OA
ATOM     23  O   UNL     1     -15.351 202.962 119.272  1.00  0.00    -0.207 OA
BRANCH  21  24
ATOM     24  N   UNL     1     -14.500 201.352 117.562  1.00  0.00    -0.225 NA
ATOM     25  H   UNL     1     -13.891 201.557 116.770  1.00  0.00     0.137 HD
ATOM     26  H   UNL     1     -13.969 201.148 118.410  1.00  0.00     0.137 HD
ENDBRANCH  21  24
ENDBRANCH  20  21
ENDBRANCH  13  15
ENDBRANCH   4  13
BRANCH  10  27
ATOM     27  C   UNL     1      -6.820 208.758 115.109  1.00  0.00     0.251 C 
ATOM     28  O   UNL     1      -5.855 209.390 114.694  1.00  0.00    -0.269 OA
ATOM     29  N   UNL     1      -7.056 208.534 116.443  1.00  0.00    -0.352 N 
ATOM     30  H   UNL     1      -7.688 207.785 116.723  1.00  0.00     0.163 HD
BRANCH  29  31
ATOM     31  C   UNL     1      -6.088 208.898 117.462  1.00  0.00     0.122 C 
BRANCH  31  32
ATOM     32  C   UNL     1      -5.966 207.826 118.546  1.00  0.00     0.079 C 
BRANCH  32  33
ATOM     33  C   UNL     1      -7.252 207.106 118.792  1.00  0.00     0.060 A 
ATOM     34  C   UNL     1      -7.509 205.753 118.796  1.00  0.00     0.107 A 
ATOM     35  N   UNL     1      -8.409 207.811 119.066  1.00  0.00    -0.242 NA
ATOM     36  N   UNL     1      -8.841 205.638 119.080  1.00  0.00    -0.351 N 
ATOM     37  C   UNL     1      -9.341 206.901 119.235  1.00  0.00     0.196 A 
ATOM     38  H   UNL     1      -9.368 204.779 119.163  1.00  0.00     0.167 HD
ENDBRANCH  32  33
ENDBRANCH  31  32
ENDBRANCH  29  31
ENDBRANCH  10  27
TORSDOF 8
ENDMDL
MODEL 7
REMARK minimizedAffinity -7.87620497
REMARK minimizedRMSD -1
REMARK SMILES NS(=O)(=O)c1ccc(N/N=C2\C(=O)Nc3ccc(C(=O)NCCc4c[nH]cn4)cc32)cc1
REMARK SMILES IDX 13 1 12 2 11 3 10 4 30 5 15 6 14 7 16 8 17 9 18 10 29 11
REMARK SMILES IDX 9 13 8 15 7 16 31 17 6 18 32 19 5 20 2 21 3 22 4 23 1 24
REMARK SMILES IDX 19 27 20 28 21 29 22 31 23 32 24 33 25 34 28 35 26 36 27 37
REMARK H PARENT 14 12 9 14 1 25 1 26 21 30 26 38
REMARK Flexibility Score: inf
ROOT
ATOM      1  O   UNL     1     -12.602 205.766 120.712  1.00  0.00    -0.267 OA
ATOM      2  C   UNL     1     -12.338 206.103 119.578  1.00  0.00     0.276 C 
ATOM      3  C   UNL     1     -12.720 205.327 118.310  1.00  0.00     0.158 C 
ATOM      4  N   UNL     1     -13.391 204.224 118.207  1.00  0.00    -0.169 NA
ATOM      5  C   UNL     1     -12.168 206.089 117.197  1.00  0.00     0.032 A 
ATOM      6  C   UNL     1     -11.541 207.204 117.749  1.00  0.00     0.051 A 
ATOM      7  N   UNL     1     -11.645 207.209 119.137  1.00  0.00    -0.320 N 
ATOM      8  C   UNL     1     -10.912 208.137 116.954  1.00  0.00     0.027 A 
ATOM      9  C   UNL     1     -10.937 207.917 115.570  1.00  0.00     0.016 A 
ATOM     10  C   UNL     1     -11.583 206.785 115.005  1.00  0.00     0.040 A 
ATOM     11  C   UNL     1     -12.205 205.845 115.837  1.00  0.00     0.026 A 
ATOM     12  H   UNL     1     -11.259 207.905 119.759  1.00  0.00     0.170 HD
ENDROOT
BRANCH   4  13
ATOM     13  N   UNL     1     -13.845 203.685 119.368  1.00  0.00    -0.278 N 
ATOM     14  H   UNL     1     -13.236 203.067 119.920  1.00  0.00     0.190 HD
BRANCH  13  15
ATOM     15  C   UNL     1     -15.224 203.439 119.512  1.00  0.00     0.056 A 
ATOM     16  C   UNL     1     -15.941 202.914 118.426  1.00  0.00     0.029 A 
ATOM     17  C   UNL     1     -15.893 203.611 120.733  1.00  0.00     0.029 A 
ATOM     18  C   UNL     1     -17.300 202.604 118.542  1.00  0.00     0.024 A 
ATOM     19  C   UNL     1     -17.252 203.309 120.862  1.00  0.00     0.024 A 
ATOM     20  C   UNL     1     -17.946 202.799 119.764  1.00  0.00     0.082 A 
BRANCH  20  21
ATOM     21  S   UNL     1     -19.666 202.400 119.915  1.00  0.00     0.238 S 
ATOM     22  O   UNL     1     -20.377 203.583 120.338  1.00  0.00    -0.207 OA
ATOM     23  O   UNL     1     -19.790 201.132 120.596  1.00  0.00    -0.207 OA
BRANCH  21  24
ATOM     24  N   UNL     1     -20.078 202.095 118.309  1.00  0.00    -0.225 NA
ATOM     25  H   UNL     1     -19.342 202.358 117.654  1.00  0.00     0.137 HD
ATOM     26  H   UNL     1     -20.335 201.111 118.221  1.00  0.00     0.137 HD
ENDBRANCH  21  24
ENDBRANCH  20  21
ENDBRANCH  13  15
ENDBRANCH   4  13
BRANCH  10  27
ATOM     27  C   UNL     1     -11.552 206.638 113.518  1.00  0.00     0.251 C 
ATOM     28  O   UNL     1     -10.937 207.449 112.835  1.00  0.00    -0.269 OA
ATOM     29  N   UNL     1     -12.253 205.584 112.986  1.00  0.00    -0.352 N 
ATOM     30  H   UNL     1     -12.965 205.118 113.548  1.00  0.00     0.163 HD
BRANCH  29  31
ATOM     31  C   UNL     1     -12.450 205.443 111.554  1.00  0.00     0.122 C 
BRANCH  31  32
ATOM     32  C   UNL     1     -13.870 204.987 111.213  1.00  0.00     0.079 C 
BRANCH  32  33
ATOM     33  C   UNL     1     -14.889 205.508 112.173  1.00  0.00     0.060 A 
ATOM     34  C   UNL     1     -15.771 206.556 112.028  1.00  0.00     0.107 A 
ATOM     35  N   UNL     1     -15.048 204.921 113.414  1.00  0.00    -0.242 NA
ATOM     36  N   UNL     1     -16.477 206.600 113.199  1.00  0.00    -0.351 N 
ATOM     37  C   UNL     1     -16.008 205.599 114.002  1.00  0.00     0.196 A 
ATOM     38  H   UNL     1     -17.213 207.252 113.434  1.00  0.00     0.167 HD
ENDBRANCH  32  33
ENDBRANCH  31  32
ENDBRANCH  29  31
ENDBRANCH  10  27
TORSDOF 8
ENDMDL
MODEL 8
REMARK minimizedAffinity -7.87067556
REMARK minimizedRMSD -1
REMARK SMILES NS(=O)(=O)c1ccc(N/N=C2\C(=O)Nc3ccc(C(=O)NCCc4c[nH]cn4)cc32)cc1
REMARK SMILES IDX 13 1 12 2 11 3 10 4 30 5 15 6 14 7 16 8 17 9 18 10 29 11
REMARK SMILES IDX 9 13 8 15 7 16 31 17 6 18 32 19 5 20 2 21 3 22 4 23 1 24
REMARK SMILES IDX 19 27 20 28 21 29 22 31 23 32 24 33 25 34 28 35 26 36 27 37
REMARK H PARENT 14 12 9 14 1 25 1 26 21 30 26 38
REMARK Flexibility Score: inf
ROOT
ATOM      1  O   UNL     1      -8.214 208.657 112.650  1.00  0.00    -0.267 OA
ATOM      2  C   UNL     1      -7.902 208.480 113.808  1.00  0.00     0.276 C 
ATOM      3  C   UNL     1      -8.592 207.509 114.776  1.00  0.00     0.158 C 
ATOM      4  N   UNL     1      -9.582 206.706 114.548  1.00  0.00    -0.169 NA
ATOM      5  C   UNL     1      -7.902 207.660 116.051  1.00  0.00     0.032 A 
ATOM      6  C   UNL     1      -6.901 208.609 115.852  1.00  0.00     0.051 A 
ATOM      7  N   UNL     1      -6.903 209.082 114.542  1.00  0.00    -0.320 N 
ATOM      8  C   UNL     1      -6.059 208.984 116.875  1.00  0.00     0.027 A 
ATOM      9  C   UNL     1      -6.249 208.366 118.118  1.00  0.00     0.016 A 
ATOM     10  C   UNL     1      -7.264 207.393 118.320  1.00  0.00     0.040 A 
ATOM     11  C   UNL     1      -8.116 207.038 117.265  1.00  0.00     0.026 A 
ATOM     12  H   UNL     1      -6.283 209.782 114.163  1.00  0.00     0.170 HD
ENDROOT
BRANCH   4  13
ATOM     13  N   UNL     1     -10.067 206.694 113.278  1.00  0.00    -0.278 N 
ATOM     14  H   UNL     1      -9.602 207.244 112.546  1.00  0.00     0.190 HD
BRANCH  13  15
ATOM     15  C   UNL     1     -11.446 206.487 113.078  1.00  0.00     0.056 A 
ATOM     16  C   UNL     1     -11.871 205.763 111.953  1.00  0.00     0.029 A 
ATOM     17  C   UNL     1     -12.409 206.897 114.011  1.00  0.00     0.029 A 
ATOM     18  C   UNL     1     -13.226 205.487 111.744  1.00  0.00     0.024 A 
ATOM     19  C   UNL     1     -13.768 206.632 113.812  1.00  0.00     0.024 A 
ATOM     20  C   UNL     1     -14.167 205.920 112.680  1.00  0.00     0.082 A 
BRANCH  20  21
ATOM     21  S   UNL     1     -15.883 205.567 112.420  1.00  0.00     0.238 S 
ATOM     22  O   UNL     1     -16.102 204.158 112.643  1.00  0.00    -0.207 OA
ATOM     23  O   UNL     1     -16.319 206.242 111.219  1.00  0.00    -0.207 OA
BRANCH  21  24
ATOM     24  N   UNL     1     -16.593 206.410 113.697  1.00  0.00    -0.225 NA
ATOM     25  H   UNL     1     -15.911 206.758 114.370  1.00  0.00     0.137 HD
ATOM     26  H   UNL     1     -17.167 207.161 113.311  1.00  0.00     0.137 HD
ENDBRANCH  21  24
ENDBRANCH  20  21
ENDBRANCH  13  15
ENDBRANCH   4  13
BRANCH  10  27
ATOM     27  C   UNL     1      -7.390 206.794 119.683  1.00  0.00     0.251 C 
ATOM     28  O   UNL     1      -6.993 207.413 120.664  1.00  0.00    -0.269 OA
ATOM     29  N   UNL     1      -7.939 205.537 119.759  1.00  0.00    -0.352 N 
ATOM     30  H   UNL     1      -7.988 204.958 118.921  1.00  0.00     0.163 HD
BRANCH  29  31
ATOM     31  C   UNL     1      -7.945 204.780 120.998  1.00  0.00     0.122 C 
BRANCH  31  32
ATOM     32  C   UNL     1      -9.352 204.311 121.375  1.00  0.00     0.079 C 
BRANCH  32  33
ATOM     33  C   UNL     1     -10.359 204.593 120.309  1.00  0.00     0.060 A 
ATOM     34  C   UNL     1     -11.443 205.443 120.334  1.00  0.00     0.107 A 
ATOM     35  N   UNL     1     -10.279 203.959 119.084  1.00  0.00    -0.242 NA
ATOM     36  N   UNL     1     -12.024 205.324 119.101  1.00  0.00    -0.351 N 
ATOM     37  C   UNL     1     -11.290 204.422 118.384  1.00  0.00     0.196 A 
ATOM     38  H   UNL     1     -12.847 205.812 118.774  1.00  0.00     0.167 HD
ENDBRANCH  32  33
ENDBRANCH  31  32
ENDBRANCH  29  31
ENDBRANCH  10  27
TORSDOF 8
ENDMDL
MODEL 9
REMARK minimizedAffinity -7.82815361
REMARK minimizedRMSD -1
REMARK SMILES NS(=O)(=O)c1ccc(N/N=C2\C(=O)Nc3ccc(C(=O)NCCc4c[nH]cn4)cc32)cc1
REMARK SMILES IDX 13 1 12 2 11 3 10 4 30 5 15 6 14 7 16 8 17 9 18 10 29 11
REMARK SMILES IDX 9 13 8 15 7 16 31 17 6 18 32 19 5 20 2 21 3 22 4 23 1 24
REMARK SMILES IDX 19 27 20 28 21 29 22 31 23 32 24 33 25 34 28 35 26 36 27 37
REMARK H PARENT 14 12 9 14 1 25 1 26 21 30 26 38
REMARK Flexibility Score: inf
ROOT
ATOM      1  O   UNL     1     -11.605 207.894 118.796  1.00  0.00    -0.267 OA
ATOM      2  C   UNL     1     -12.121 207.013 119.449  1.00  0.00     0.276 C 
ATOM      3  C   UNL     1     -13.501 206.398 119.177  1.00  0.00     0.158 C 
ATOM      4  N   UNL     1     -14.335 206.670 118.224  1.00  0.00    -0.169 NA
ATOM      5  C   UNL     1     -13.711 205.411 120.228  1.00  0.00     0.032 A 
ATOM      6  C   UNL     1     -12.569 205.430 121.027  1.00  0.00     0.051 A 
ATOM      7  N   UNL     1     -11.644 206.364 120.567  1.00  0.00    -0.320 N 
ATOM      8  C   UNL     1     -12.449 204.604 122.122  1.00  0.00     0.027 A 
ATOM      9  C   UNL     1     -13.520 203.741 122.391  1.00  0.00     0.016 A 
ATOM     10  C   UNL     1     -14.681 203.714 121.573  1.00  0.00     0.040 A 
ATOM     11  C   UNL     1     -14.783 204.574 120.472  1.00  0.00     0.026 A 
ATOM     12  H   UNL     1     -10.750 206.570 120.987  1.00  0.00     0.170 HD
ENDROOT
BRANCH   4  13
ATOM     13  N   UNL     1     -13.936 207.606 117.323  1.00  0.00    -0.278 N 
ATOM     14  H   UNL     1     -14.075 208.604 117.525  1.00  0.00     0.190 HD
BRANCH  13  15
ATOM     15  C   UNL     1     -13.926 207.274 115.955  1.00  0.00     0.056 A 
ATOM     16  C   UNL     1     -12.717 206.889 115.354  1.00  0.00     0.029 A 
ATOM     17  C   UNL     1     -15.099 207.223 115.187  1.00  0.00     0.029 A 
ATOM     18  C   UNL     1     -12.671 206.500 114.012  1.00  0.00     0.024 A 
ATOM     19  C   UNL     1     -15.067 206.839 113.843  1.00  0.00     0.024 A 
ATOM     20  C   UNL     1     -13.851 206.471 113.266  1.00  0.00     0.082 A 
BRANCH  20  21
ATOM     21  S   UNL     1     -13.797 205.972 111.566  1.00  0.00     0.238 S 
ATOM     22  O   UNL     1     -12.489 206.279 111.038  1.00  0.00    -0.207 OA
ATOM     23  O   UNL     1     -15.017 206.395 110.919  1.00  0.00    -0.207 OA
BRANCH  21  24
ATOM     24  N   UNL     1     -13.917 204.296 111.710  1.00  0.00    -0.225 NA
ATOM     25  H   UNL     1     -13.826 203.972 112.672  1.00  0.00     0.137 HD
ATOM     26  H   UNL     1     -14.796 203.996 111.286  1.00  0.00     0.137 HD
ENDBRANCH  21  24
ENDBRANCH  20  21
ENDBRANCH  13  15
ENDBRANCH   4  13
BRANCH  10  27
ATOM     27  C   UNL     1     -15.770 202.761 121.946  1.00  0.00     0.251 C 
ATOM     28  O   UNL     1     -15.538 201.835 122.714  1.00  0.00    -0.269 OA
ATOM     29  N   UNL     1     -16.999 202.971 121.369  1.00  0.00    -0.352 N 
ATOM     30  H   UNL     1     -17.072 203.559 120.540  1.00  0.00     0.163 HD
BRANCH  29  31
ATOM     31  C   UNL     1     -18.081 202.012 121.507  1.00  0.00     0.122 C 
BRANCH  31  32
ATOM     32  C   UNL     1     -18.623 201.561 120.150  1.00  0.00     0.079 C 
BRANCH  32  33
ATOM     33  C   UNL     1     -17.554 201.039 119.246  1.00  0.00     0.060 A 
ATOM     34  C   UNL     1     -17.250 199.738 118.914  1.00  0.00     0.107 A 
ATOM     35  N   UNL     1     -16.694 201.908 118.602  1.00  0.00    -0.242 NA
ATOM     36  N   UNL     1     -16.192 199.822 118.052  1.00  0.00    -0.351 N 
ATOM     37  C   UNL     1     -15.892 201.146 117.894  1.00  0.00     0.196 A 
ATOM     38  H   UNL     1     -15.713 199.049 117.608  1.00  0.00     0.167 HD
ENDBRANCH  32  33
ENDBRANCH  31  32
ENDBRANCH  29  31
ENDBRANCH  10  27
TORSDOF 8
ENDMDL
