MODEL 1
REMARK minimizedAffinity -8.46296501
REMARK minimizedRMSD -1
REMARK SMILES COc1cc(OC)c(NC(=O)CSc2nnc(-c3ccccc3)n2C)cc1Cl
REMARK SMILES IDX 12 1 13 2 14 3 25 4 24 5 17 6 15 7 16 8 18 9 19 10 23 11
REMARK SMILES IDX 20 12 22 13 21 14 10 15 11 16 9 17 8 19 26 20 5 21 27 22
REMARK SMILES IDX 4 23 28 24 3 25 6 26 7 27 2 28 1 29
REMARK H PARENT 9 18
REMARK Flexibility Score: inf
ROOT
ATOM      1  C   UNL     1     -14.968 203.858 117.585  1.00  0.00     0.178 C 
ENDROOT
BRANCH   1   2
ATOM      2  S   UNL     1     -15.351 202.079 117.643  1.00  0.00    -0.076 SA
BRANCH   2   3
ATOM      3  C   UNL     1     -17.020 202.136 118.095  1.00  0.00     0.191 A 
ATOM      4  C   UNL     1     -16.731 202.576 120.555  1.00  0.00     0.154 C 
ATOM      5  N   UNL     1     -17.495 202.381 119.352  1.00  0.00    -0.305 N 
ATOM      6  C   UNL     1     -18.872 202.302 119.251  1.00  0.00     0.164 A 
ATOM      7  N   UNL     1     -18.018 201.924 117.271  1.00  0.00    -0.123 NA
ATOM      8  N   UNL     1     -19.176 202.010 117.995  1.00  0.00    -0.129 NA
BRANCH   6   9
ATOM      9  C   UNL     1     -19.848 202.418 120.331  1.00  0.00     0.019 A 
ATOM     10  C   UNL     1     -20.309 203.695 120.684  1.00  0.00     0.012 A 
ATOM     11  C   UNL     1     -20.311 201.314 121.050  1.00  0.00     0.012 A 
ATOM     12  C   UNL     1     -21.243 203.861 121.705  1.00  0.00     0.001 A 
ATOM     13  C   UNL     1     -21.248 201.482 122.075  1.00  0.00     0.001 A 
ATOM     14  C   UNL     1     -21.716 202.753 122.396  1.00  0.00     0.000 A 
ENDBRANCH   6   9
ENDBRANCH   2   3
ENDBRANCH   1   2
BRANCH   1  15
ATOM     15  C   UNL     1     -14.982 204.421 116.167  1.00  0.00     0.234 C 
ATOM     16  O   UNL     1     -15.994 204.977 115.727  1.00  0.00    -0.274 OA
ATOM     17  N   UNL     1     -13.778 204.307 115.504  1.00  0.00    -0.322 N 
ATOM     18  H   UNL     1     -13.043 203.760 115.948  1.00  0.00     0.170 HD
BRANCH  17  19
ATOM     19  C   UNL     1     -13.423 204.825 114.239  1.00  0.00     0.085 A 
ATOM     20  C   UNL     1     -14.337 205.108 113.227  1.00  0.00     0.054 A 
ATOM     21  C   UNL     1     -12.062 205.096 114.014  1.00  0.00     0.146 A 
ATOM     22  C   UNL     1     -13.892 205.648 112.011  1.00  0.00     0.085 A 
ATOM     23  C   UNL     1     -11.612 205.603 112.791  1.00  0.00     0.096 A 
ATOM     24  Cl  UNL     1     -15.081 206.001 110.810  1.00  0.00    -0.080 Cl
ATOM     25  C   UNL     1     -12.529 205.901 111.779  1.00  0.00     0.141 A 
BRANCH  21  26
ATOM     26  O   UNL     1     -11.152 204.757 114.993  1.00  0.00    -0.494 OA
ATOM     27  C   UNL     1     -10.529 205.916 115.552  1.00  0.00     0.278 C 
ENDBRANCH  21  26
BRANCH  25  28
ATOM     28  O   UNL     1     -12.191 206.424 110.557  1.00  0.00    -0.495 OA
ATOM     29  C   UNL     1     -10.809 206.613 110.274  1.00  0.00     0.278 C 
ENDBRANCH  25  28
ENDBRANCH  17  19
ENDBRANCH   1  15
TORSDOF 7
ENDMDL
MODEL 2
REMARK minimizedAffinity -8.397295
REMARK minimizedRMSD -1
REMARK SMILES COc1cc(OC)c(NC(=O)CSc2nnc(-c3ccccc3)n2C)cc1Cl
REMARK SMILES IDX 12 1 13 2 14 3 25 4 24 5 17 6 15 7 16 8 18 9 19 10 23 11
REMARK SMILES IDX 20 12 22 13 21 14 10 15 11 16 9 17 8 19 26 20 5 21 27 22
REMARK SMILES IDX 4 23 28 24 3 25 6 26 7 27 2 28 1 29
REMARK H PARENT 9 18
REMARK Flexibility Score: inf
ROOT
ATOM      1  C   UNL     1     -11.934 206.865 118.700  1.00  0.00     0.178 C 
ENDROOT
BRANCH   1   2
ATOM      2  S   UNL     1     -13.698 206.447 118.532  1.00  0.00    -0.076 SA
BRANCH   2   3
ATOM      3  C   UNL     1     -13.983 206.962 116.905  1.00  0.00     0.191 A 
ATOM      4  C   UNL     1     -14.362 204.707 115.856  1.00  0.00     0.154 C 
ATOM      5  N   UNL     1     -14.283 206.143 115.853  1.00  0.00    -0.305 N 
ATOM      6  C   UNL     1     -14.398 206.975 114.755  1.00  0.00     0.164 A 
ATOM      7  N   UNL     1     -13.918 208.208 116.500  1.00  0.00    -0.123 NA
ATOM      8  N   UNL     1     -14.160 208.216 115.153  1.00  0.00    -0.129 NA
BRANCH   6   9
ATOM      9  C   UNL     1     -14.642 206.586 113.369  1.00  0.00     0.019 A 
ATOM     10  C   UNL     1     -15.950 206.672 112.868  1.00  0.00     0.012 A 
ATOM     11  C   UNL     1     -13.634 206.096 112.535  1.00  0.00     0.012 A 
ATOM     12  C   UNL     1     -16.236 206.316 111.552  1.00  0.00     0.001 A 
ATOM     13  C   UNL     1     -13.923 205.738 111.215  1.00  0.00     0.001 A 
ATOM     14  C   UNL     1     -15.221 205.854 110.724  1.00  0.00     0.000 A 
ENDBRANCH   6   9
ENDBRANCH   2   3
ENDBRANCH   1   2
BRANCH   1  15
ATOM     15  C   UNL     1     -11.098 206.391 117.515  1.00  0.00     0.234 C 
ATOM     16  O   UNL     1     -10.949 205.183 117.301  1.00  0.00    -0.274 OA
ATOM     17  N   UNL     1     -10.619 207.410 116.719  1.00  0.00    -0.322 N 
ATOM     18  H   UNL     1     -10.747 208.365 117.046  1.00  0.00     0.170 HD
BRANCH  17  19
ATOM     19  C   UNL     1      -9.921 207.311 115.496  1.00  0.00     0.085 A 
ATOM     20  C   UNL     1     -10.533 207.316 114.245  1.00  0.00     0.054 A 
ATOM     21  C   UNL     1      -8.519 207.233 115.560  1.00  0.00     0.146 A 
ATOM     22  C   UNL     1      -9.753 207.240 113.082  1.00  0.00     0.085 A 
ATOM     23  C   UNL     1      -7.740 207.123 114.404  1.00  0.00     0.096 A 
ATOM     24  Cl  UNL     1     -10.573 207.279 111.563  1.00  0.00    -0.080 Cl
ATOM     25  C   UNL     1      -8.351 207.142 113.147  1.00  0.00     0.141 A 
BRANCH  21  26
ATOM     26  O   UNL     1      -7.919 207.164 116.800  1.00  0.00    -0.494 OA
ATOM     27  C   UNL     1      -6.735 207.964 116.853  1.00  0.00     0.278 C 
ENDBRANCH  21  26
BRANCH  25  28
ATOM     28  O   UNL     1      -7.676 207.067 111.955  1.00  0.00    -0.495 OA
ATOM     29  C   UNL     1      -6.253 207.035 112.000  1.00  0.00     0.278 C 
ENDBRANCH  25  28
ENDBRANCH  17  19
ENDBRANCH   1  15
TORSDOF 7
ENDMDL
MODEL 3
REMARK minimizedAffinity -8.33105278
REMARK minimizedRMSD -1
REMARK SMILES COc1cc(OC)c(NC(=O)CSc2nnc(-c3ccccc3)n2C)cc1Cl
REMARK SMILES IDX 12 1 13 2 14 3 25 4 24 5 17 6 15 7 16 8 18 9 19 10 23 11
REMARK SMILES IDX 20 12 22 13 21 14 10 15 11 16 9 17 8 19 26 20 5 21 27 22
REMARK SMILES IDX 4 23 28 24 3 25 6 26 7 27 2 28 1 29
REMARK H PARENT 9 18
REMARK Flexibility Score: inf
ROOT
ATOM      1  C   UNL     1     -12.395 204.797 118.823  1.00  0.00     0.178 C 
ENDROOT
BRANCH   1   2
ATOM      2  S   UNL     1     -13.884 205.835 118.689  1.00  0.00    -0.076 SA
BRANCH   2   3
ATOM      3  C   UNL     1     -14.506 205.288 117.169  1.00  0.00     0.191 A 
ATOM      4  C   UNL     1     -14.348 207.451 115.895  1.00  0.00     0.154 C 
ATOM      5  N   UNL     1     -14.635 206.049 116.043  1.00  0.00    -0.305 N 
ATOM      6  C   UNL     1     -15.196 205.216 115.093  1.00  0.00     0.164 A 
ATOM      7  N   UNL     1     -14.948 204.073 116.944  1.00  0.00    -0.123 NA
ATOM      8  N   UNL     1     -15.396 204.031 115.652  1.00  0.00    -0.129 NA
BRANCH   6   9
ATOM      9  C   UNL     1     -15.600 205.566 113.734  1.00  0.00     0.019 A 
ATOM     10  C   UNL     1     -14.627 205.562 112.723  1.00  0.00     0.012 A 
ATOM     11  C   UNL     1     -16.906 205.940 113.409  1.00  0.00     0.012 A 
ATOM     12  C   UNL     1     -14.961 205.885 111.409  1.00  0.00     0.001 A 
ATOM     13  C   UNL     1     -17.239 206.264 112.091  1.00  0.00     0.001 A 
ATOM     14  C   UNL     1     -16.269 206.231 111.092  1.00  0.00     0.000 A 
ENDBRANCH   6   9
ENDBRANCH   2   3
ENDBRANCH   1   2
BRANCH   1  15
ATOM     15  C   UNL     1     -11.614 204.709 117.515  1.00  0.00     0.234 C 
ATOM     16  O   UNL     1     -11.443 203.616 116.964  1.00  0.00    -0.274 OA
ATOM     17  N   UNL     1     -11.212 205.930 117.015  1.00  0.00    -0.322 N 
ATOM     18  H   UNL     1     -11.349 206.750 117.602  1.00  0.00     0.170 HD
BRANCH  17  19
ATOM     19  C   UNL     1     -10.583 206.206 115.782  1.00  0.00     0.085 A 
ATOM     20  C   UNL     1     -11.168 205.980 114.539  1.00  0.00     0.054 A 
ATOM     21  C   UNL     1      -9.297 206.773 115.829  1.00  0.00     0.146 A 
ATOM     22  C   UNL     1     -10.474 206.312 113.366  1.00  0.00     0.085 A 
ATOM     23  C   UNL     1      -8.589 207.074 114.661  1.00  0.00     0.096 A 
ATOM     24  Cl  UNL     1     -11.269 206.032 111.859  1.00  0.00    -0.080 Cl
ATOM     25  C   UNL     1      -9.180 206.861 113.413  1.00  0.00     0.141 A 
BRANCH  21  26
ATOM     26  O   UNL     1      -8.694 206.937 117.058  1.00  0.00    -0.494 OA
ATOM     27  C   UNL     1      -7.468 207.664 116.946  1.00  0.00     0.278 C 
ENDBRANCH  21  26
BRANCH  25  28
ATOM     28  O   UNL     1      -8.581 207.147 112.212  1.00  0.00    -0.495 OA
ATOM     29  C   UNL     1      -7.165 207.294 112.196  1.00  0.00     0.278 C 
ENDBRANCH  25  28
ENDBRANCH  17  19
ENDBRANCH   1  15
TORSDOF 7
ENDMDL
MODEL 4
REMARK minimizedAffinity -8.27557182
REMARK minimizedRMSD -1
REMARK SMILES COc1cc(OC)c(NC(=O)CSc2nnc(-c3ccccc3)n2C)cc1Cl
REMARK SMILES IDX 12 1 13 2 14 3 25 4 24 5 17 6 15 7 16 8 18 9 19 10 23 11
REMARK SMILES IDX 20 12 22 13 21 14 10 15 11 16 9 17 8 19 26 20 5 21 27 22
REMARK SMILES IDX 4 23 28 24 3 25 6 26 7 27 2 28 1 29
REMARK H PARENT 9 18
REMARK Flexibility Score: inf
ROOT
ATOM      1  C   UNL     1     -15.017 204.070 117.867  1.00  0.00     0.178 C 
ENDROOT
BRANCH   1   2
ATOM      2  S   UNL     1     -15.433 202.319 117.596  1.00  0.00    -0.076 SA
BRANCH   2   3
ATOM      3  C   UNL     1     -17.095 202.319 118.077  1.00  0.00     0.191 A 
ATOM      4  C   UNL     1     -16.776 202.708 120.541  1.00  0.00     0.154 C 
ATOM      5  N   UNL     1     -17.555 202.520 119.347  1.00  0.00    -0.305 N 
ATOM      6  C   UNL     1     -18.931 202.405 119.267  1.00  0.00     0.164 A 
ATOM      7  N   UNL     1     -18.101 202.098 117.264  1.00  0.00    -0.123 NA
ATOM      8  N   UNL     1     -19.248 202.135 118.009  1.00  0.00    -0.129 NA
BRANCH   6   9
ATOM      9  C   UNL     1     -19.891 202.468 120.365  1.00  0.00     0.019 A 
ATOM     10  C   UNL     1     -20.408 203.720 120.733  1.00  0.00     0.012 A 
ATOM     11  C   UNL     1     -20.287 201.339 121.086  1.00  0.00     0.012 A 
ATOM     12  C   UNL     1     -21.329 203.835 121.772  1.00  0.00     0.001 A 
ATOM     13  C   UNL     1     -21.211 201.456 122.129  1.00  0.00     0.001 A 
ATOM     14  C   UNL     1     -21.735 202.702 122.466  1.00  0.00     0.000 A 
ENDBRANCH   6   9
ENDBRANCH   2   3
ENDBRANCH   1   2
BRANCH   1  15
ATOM     15  C   UNL     1     -14.677 204.805 116.574  1.00  0.00     0.234 C 
ATOM     16  O   UNL     1     -15.246 205.866 116.292  1.00  0.00    -0.274 OA
ATOM     17  N   UNL     1     -13.668 204.217 115.839  1.00  0.00    -0.322 N 
ATOM     18  H   UNL     1     -13.334 203.305 116.141  1.00  0.00     0.170 HD
BRANCH  17  19
ATOM     19  C   UNL     1     -13.042 204.701 114.670  1.00  0.00     0.085 A 
ATOM     20  C   UNL     1     -11.797 205.325 114.652  1.00  0.00     0.054 A 
ATOM     21  C   UNL     1     -13.716 204.505 113.452  1.00  0.00     0.146 A 
ATOM     22  C   UNL     1     -11.242 205.748 113.435  1.00  0.00     0.085 A 
ATOM     23  C   UNL     1     -13.180 204.955 112.241  1.00  0.00     0.096 A 
ATOM     24  Cl  UNL     1      -9.684 206.490 113.481  1.00  0.00    -0.080 Cl
ATOM     25  C   UNL     1     -11.925 205.570 112.219  1.00  0.00     0.141 A 
BRANCH  21  26
ATOM     26  O   UNL     1     -14.975 203.944 113.478  1.00  0.00    -0.494 OA
ATOM     27  C   UNL     1     -15.906 204.711 112.709  1.00  0.00     0.278 C 
ENDBRANCH  21  26
BRANCH  25  28
ATOM     28  O   UNL     1     -11.303 206.022 111.083  1.00  0.00    -0.495 OA
ATOM     29  C   UNL     1     -12.085 206.755 110.145  1.00  0.00     0.278 C 
ENDBRANCH  25  28
ENDBRANCH  17  19
ENDBRANCH   1  15
TORSDOF 7
ENDMDL
MODEL 5
REMARK minimizedAffinity -7.89742231
REMARK minimizedRMSD -1
REMARK SMILES COc1cc(OC)c(NC(=O)CSc2nnc(-c3ccccc3)n2C)cc1Cl
REMARK SMILES IDX 12 1 13 2 14 3 25 4 24 5 17 6 15 7 16 8 18 9 19 10 23 11
REMARK SMILES IDX 20 12 22 13 21 14 10 15 11 16 9 17 8 19 26 20 5 21 27 22
REMARK SMILES IDX 4 23 28 24 3 25 6 26 7 27 2 28 1 29
REMARK H PARENT 9 18
REMARK Flexibility Score: inf
ROOT
ATOM      1  C   UNL     1     -12.350 204.957 118.565  1.00  0.00     0.178 C 
ENDROOT
BRANCH   1   2
ATOM      2  S   UNL     1     -13.726 206.146 118.491  1.00  0.00    -0.076 SA
BRANCH   2   3
ATOM      3  C   UNL     1     -14.509 205.621 117.040  1.00  0.00     0.191 A 
ATOM      4  C   UNL     1     -14.670 207.843 115.872  1.00  0.00     0.154 C 
ATOM      5  N   UNL     1     -14.839 206.419 115.982  1.00  0.00    -0.305 N 
ATOM      6  C   UNL     1     -15.466 205.588 115.071  1.00  0.00     0.164 A 
ATOM      7  N   UNL     1     -14.894 204.388 116.810  1.00  0.00    -0.123 NA
ATOM      8  N   UNL     1     -15.508 204.369 115.588  1.00  0.00    -0.129 NA
BRANCH   6   9
ATOM      9  C   UNL     1     -16.073 205.966 113.798  1.00  0.00     0.019 A 
ATOM     10  C   UNL     1     -17.409 205.611 113.560  1.00  0.00     0.012 A 
ATOM     11  C   UNL     1     -15.366 206.633 112.794  1.00  0.00     0.012 A 
ATOM     12  C   UNL     1     -18.037 205.951 112.363  1.00  0.00     0.001 A 
ATOM     13  C   UNL     1     -15.997 206.972 111.594  1.00  0.00     0.001 A 
ATOM     14  C   UNL     1     -17.332 206.636 111.382  1.00  0.00     0.000 A 
ENDBRANCH   6   9
ENDBRANCH   2   3
ENDBRANCH   1   2
BRANCH   1  15
ATOM     15  C   UNL     1     -11.158 205.376 117.709  1.00  0.00     0.234 C 
ATOM     16  O   UNL     1     -10.056 204.841 117.870  1.00  0.00    -0.274 OA
ATOM     17  N   UNL     1     -11.460 206.314 116.743  1.00  0.00    -0.322 N 
ATOM     18  H   UNL     1     -12.387 206.732 116.763  1.00  0.00     0.170 HD
BRANCH  17  19
ATOM     19  C   UNL     1     -10.624 206.819 115.724  1.00  0.00     0.085 A 
ATOM     20  C   UNL     1      -9.623 207.764 115.930  1.00  0.00     0.054 A 
ATOM     21  C   UNL     1     -10.807 206.303 114.428  1.00  0.00     0.146 A 
ATOM     22  C   UNL     1      -8.824 208.187 114.858  1.00  0.00     0.085 A 
ATOM     23  C   UNL     1     -10.034 206.746 113.351  1.00  0.00     0.096 A 
ATOM     24  Cl  UNL     1      -7.583 209.340 115.190  1.00  0.00    -0.080 Cl
ATOM     25  C   UNL     1      -9.019 207.684 113.559  1.00  0.00     0.141 A 
BRANCH  21  26
ATOM     26  O   UNL     1     -11.839 205.414 114.212  1.00  0.00    -0.494 OA
ATOM     27  C   UNL     1     -12.074 205.215 112.816  1.00  0.00     0.278 C 
ENDBRANCH  21  26
BRANCH  25  28
ATOM     28  O   UNL     1      -8.191 208.162 112.576  1.00  0.00    -0.495 OA
ATOM     29  C   UNL     1      -7.140 207.315 112.123  1.00  0.00     0.278 C 
ENDBRANCH  25  28
ENDBRANCH  17  19
ENDBRANCH   1  15
TORSDOF 7
ENDMDL
MODEL 6
REMARK minimizedAffinity -7.79039001
REMARK minimizedRMSD -1
REMARK SMILES COc1cc(OC)c(NC(=O)CSc2nnc(-c3ccccc3)n2C)cc1Cl
REMARK SMILES IDX 12 1 13 2 14 3 25 4 24 5 17 6 15 7 16 8 18 9 19 10 23 11
REMARK SMILES IDX 20 12 22 13 21 14 10 15 11 16 9 17 8 19 26 20 5 21 27 22
REMARK SMILES IDX 4 23 28 24 3 25 6 26 7 27 2 28 1 29
REMARK H PARENT 9 18
REMARK Flexibility Score: inf
ROOT
ATOM      1  C   UNL     1     -11.791 205.532 118.716  1.00  0.00     0.178 C 
ENDROOT
BRANCH   1   2
ATOM      2  S   UNL     1     -11.453 206.965 117.646  1.00  0.00    -0.076 SA
BRANCH   2   3
ATOM      3  C   UNL     1     -11.970 206.339 116.118  1.00  0.00     0.191 A 
ATOM      4  C   UNL     1     -13.778 208.014 115.615  1.00  0.00     0.154 C 
ATOM      5  N   UNL     1     -12.945 206.877 115.328  1.00  0.00    -0.305 N 
ATOM      6  C   UNL     1     -13.039 206.039 114.231  1.00  0.00     0.164 A 
ATOM      7  N   UNL     1     -11.487 205.253 115.561  1.00  0.00    -0.123 NA
ATOM      8  N   UNL     1     -12.167 205.055 114.390  1.00  0.00    -0.129 NA
BRANCH   6   9
ATOM      9  C   UNL     1     -13.983 206.134 113.122  1.00  0.00     0.019 A 
ATOM     10  C   UNL     1     -13.502 205.960 111.815  1.00  0.00     0.012 A 
ATOM     11  C   UNL     1     -15.336 206.427 113.306  1.00  0.00     0.012 A 
ATOM     12  C   UNL     1     -14.362 206.037 110.721  1.00  0.00     0.001 A 
ATOM     13  C   UNL     1     -16.198 206.505 112.207  1.00  0.00     0.001 A 
ATOM     14  C   UNL     1     -15.711 206.304 110.918  1.00  0.00     0.000 A 
ENDBRANCH   6   9
ENDBRANCH   2   3
ENDBRANCH   1   2
BRANCH   1  15
ATOM     15  C   UNL     1     -13.283 205.262 118.890  1.00  0.00     0.234 C 
ATOM     16  O   UNL     1     -14.105 206.164 118.705  1.00  0.00    -0.274 OA
ATOM     17  N   UNL     1     -13.587 203.949 119.188  1.00  0.00    -0.322 N 
ATOM     18  H   UNL     1     -12.814 203.319 119.389  1.00  0.00     0.170 HD
BRANCH  17  19
ATOM     19  C   UNL     1     -14.860 203.349 119.294  1.00  0.00     0.085 A 
ATOM     20  C   UNL     1     -15.603 203.295 120.470  1.00  0.00     0.054 A 
ATOM     21  C   UNL     1     -15.413 202.802 118.122  1.00  0.00     0.146 A 
ATOM     22  C   UNL     1     -16.873 202.701 120.472  1.00  0.00     0.085 A 
ATOM     23  C   UNL     1     -16.664 202.178 118.128  1.00  0.00     0.096 A 
ATOM     24  Cl  UNL     1     -17.751 202.693 121.958  1.00  0.00    -0.080 Cl
ATOM     25  C   UNL     1     -17.417 202.136 119.305  1.00  0.00     0.141 A 
BRANCH  21  26
ATOM     26  O   UNL     1     -14.650 202.799 116.973  1.00  0.00    -0.494 OA
ATOM     27  C   UNL     1     -15.148 203.735 116.013  1.00  0.00     0.278 C 
ENDBRANCH  21  26
BRANCH  25  28
ATOM     28  O   UNL     1     -18.664 201.573 119.408  1.00  0.00    -0.495 OA
ATOM     29  C   UNL     1     -19.768 202.302 118.881  1.00  0.00     0.278 C 
ENDBRANCH  25  28
ENDBRANCH  17  19
ENDBRANCH   1  15
TORSDOF 7
ENDMDL
MODEL 7
REMARK minimizedAffinity -7.78805113
REMARK minimizedRMSD -1
REMARK SMILES COc1cc(OC)c(NC(=O)CSc2nnc(-c3ccccc3)n2C)cc1Cl
REMARK SMILES IDX 12 1 13 2 14 3 25 4 24 5 17 6 15 7 16 8 18 9 19 10 23 11
REMARK SMILES IDX 20 12 22 13 21 14 10 15 11 16 9 17 8 19 26 20 5 21 27 22
REMARK SMILES IDX 4 23 28 24 3 25 6 26 7 27 2 28 1 29
REMARK H PARENT 9 18
REMARK Flexibility Score: inf
ROOT
ATOM      1  C   UNL     1     -13.925 204.118 119.668  1.00  0.00     0.178 C 
ENDROOT
BRANCH   1   2
ATOM      2  S   UNL     1     -14.321 205.692 118.844  1.00  0.00    -0.076 SA
BRANCH   2   3
ATOM      3  C   UNL     1     -14.693 205.122 117.252  1.00  0.00     0.191 A 
ATOM      4  C   UNL     1     -14.193 207.228 115.971  1.00  0.00     0.154 C 
ATOM      5  N   UNL     1     -14.577 205.848 116.102  1.00  0.00    -0.305 N 
ATOM      6  C   UNL     1     -15.006 205.010 115.088  1.00  0.00     0.164 A 
ATOM      7  N   UNL     1     -15.153 203.923 116.984  1.00  0.00    -0.123 NA
ATOM      8  N   UNL     1     -15.366 203.857 115.634  1.00  0.00    -0.129 NA
BRANCH   6   9
ATOM      9  C   UNL     1     -15.143 205.330 113.671  1.00  0.00     0.019 A 
ATOM     10  C   UNL     1     -14.047 205.109 112.824  1.00  0.00     0.012 A 
ATOM     11  C   UNL     1     -16.307 205.882 113.132  1.00  0.00     0.012 A 
ATOM     12  C   UNL     1     -14.126 205.395 111.463  1.00  0.00     0.001 A 
ATOM     13  C   UNL     1     -16.385 206.170 111.766  1.00  0.00     0.001 A 
ATOM     14  C   UNL     1     -15.298 205.920 110.933  1.00  0.00     0.000 A 
ENDBRANCH   6   9
ENDBRANCH   2   3
ENDBRANCH   1   2
BRANCH   1  15
ATOM     15  C   UNL     1     -15.073 203.595 120.527  1.00  0.00     0.234 C 
ATOM     16  O   UNL     1     -14.886 203.319 121.716  1.00  0.00    -0.274 OA
ATOM     17  N   UNL     1     -16.287 203.541 119.873  1.00  0.00    -0.322 N 
ATOM     18  H   UNL     1     -16.294 203.723 118.872  1.00  0.00     0.170 HD
BRANCH  17  19
ATOM     19  C   UNL     1     -17.554 203.221 120.406  1.00  0.00     0.085 A 
ATOM     20  C   UNL     1     -18.286 204.062 121.241  1.00  0.00     0.054 A 
ATOM     21  C   UNL     1     -18.113 201.984 120.038  1.00  0.00     0.146 A 
ATOM     22  C   UNL     1     -19.551 203.668 121.701  1.00  0.00     0.085 A 
ATOM     23  C   UNL     1     -19.360 201.574 120.522  1.00  0.00     0.096 A 
ATOM     24  Cl  UNL     1     -20.415 204.771 122.709  1.00  0.00    -0.080 Cl
ATOM     25  C   UNL     1     -20.101 202.423 121.348  1.00  0.00     0.141 A 
BRANCH  21  26
ATOM     26  O   UNL     1     -17.362 201.126 119.264  1.00  0.00    -0.494 OA
ATOM     27  C   UNL     1     -17.735 201.203 117.885  1.00  0.00     0.278 C 
ENDBRANCH  21  26
BRANCH  25  28
ATOM     28  O   UNL     1     -21.342 202.125 121.852  1.00  0.00    -0.495 OA
ATOM     29  C   UNL     1     -21.405 201.356 123.049  1.00  0.00     0.278 C 
ENDBRANCH  25  28
ENDBRANCH  17  19
ENDBRANCH   1  15
TORSDOF 7
ENDMDL
MODEL 8
REMARK minimizedAffinity -7.77892637
REMARK minimizedRMSD -1
REMARK SMILES COc1cc(OC)c(NC(=O)CSc2nnc(-c3ccccc3)n2C)cc1Cl
REMARK SMILES IDX 12 1 13 2 14 3 25 4 24 5 17 6 15 7 16 8 18 9 19 10 23 11
REMARK SMILES IDX 20 12 22 13 21 14 10 15 11 16 9 17 8 19 26 20 5 21 27 22
REMARK SMILES IDX 4 23 28 24 3 25 6 26 7 27 2 28 1 29
REMARK H PARENT 9 18
REMARK Flexibility Score: inf
ROOT
ATOM      1  C   UNL     1     -11.842 206.295 118.531  1.00  0.00     0.178 C 
ENDROOT
BRANCH   1   2
ATOM      2  S   UNL     1     -13.502 207.033 118.630  1.00  0.00    -0.076 SA
BRANCH   2   3
ATOM      3  C   UNL     1     -14.265 206.262 117.282  1.00  0.00     0.191 A 
ATOM      4  C   UNL     1     -14.686 208.301 115.870  1.00  0.00     0.154 C 
ATOM      5  N   UNL     1     -14.704 206.890 116.151  1.00  0.00    -0.305 N 
ATOM      6  C   UNL     1     -15.265 205.898 115.368  1.00  0.00     0.164 A 
ATOM      7  N   UNL     1     -14.525 204.978 117.212  1.00  0.00    -0.123 NA
ATOM      8  N   UNL     1     -15.166 204.752 116.025  1.00  0.00    -0.129 NA
BRANCH   6   9
ATOM      9  C   UNL     1     -15.940 206.058 114.084  1.00  0.00     0.019 A 
ATOM     10  C   UNL     1     -15.307 206.809 113.082  1.00  0.00     0.012 A 
ATOM     11  C   UNL     1     -17.206 205.527 113.827  1.00  0.00     0.012 A 
ATOM     12  C   UNL     1     -15.907 206.989 111.837  1.00  0.00     0.001 A 
ATOM     13  C   UNL     1     -17.807 205.710 112.578  1.00  0.00     0.001 A 
ATOM     14  C   UNL     1     -17.155 206.435 111.584  1.00  0.00     0.000 A 
ENDBRANCH   6   9
ENDBRANCH   2   3
ENDBRANCH   1   2
BRANCH   1  15
ATOM     15  C   UNL     1     -11.497 205.799 117.130  1.00  0.00     0.234 C 
ATOM     16  O   UNL     1     -11.373 204.589 116.910  1.00  0.00    -0.274 OA
ATOM     17  N   UNL     1     -11.420 206.797 116.181  1.00  0.00    -0.322 N 
ATOM     18  H   UNL     1     -11.467 207.761 116.504  1.00  0.00     0.170 HD
BRANCH  17  19
ATOM     19  C   UNL     1     -11.239 206.667 114.787  1.00  0.00     0.085 A 
ATOM     20  C   UNL     1     -11.974 205.801 113.981  1.00  0.00     0.054 A 
ATOM     21  C   UNL     1     -10.274 207.493 114.184  1.00  0.00     0.146 A 
ATOM     22  C   UNL     1     -11.742 205.761 112.599  1.00  0.00     0.085 A 
ATOM     23  C   UNL     1     -10.017 207.431 112.811  1.00  0.00     0.096 A 
ATOM     24  Cl  UNL     1     -12.708 204.685 111.656  1.00  0.00    -0.080 Cl
ATOM     25  C   UNL     1     -10.763 206.573 111.999  1.00  0.00     0.141 A 
BRANCH  21  26
ATOM     26  O   UNL     1      -9.504 208.304 114.990  1.00  0.00    -0.494 OA
ATOM     27  C   UNL     1      -8.499 208.988 114.237  1.00  0.00     0.278 C 
ENDBRANCH  21  26
BRANCH  25  28
ATOM     28  O   UNL     1     -10.606 206.458 110.641  1.00  0.00    -0.495 OA
ATOM     29  C   UNL     1     -11.451 207.244 109.806  1.00  0.00     0.278 C 
ENDBRANCH  25  28
ENDBRANCH  17  19
ENDBRANCH   1  15
TORSDOF 7
ENDMDL
MODEL 9
REMARK minimizedAffinity -7.73886633
REMARK minimizedRMSD -1
REMARK SMILES COc1cc(OC)c(NC(=O)CSc2nnc(-c3ccccc3)n2C)cc1Cl
REMARK SMILES IDX 12 1 13 2 14 3 25 4 24 5 17 6 15 7 16 8 18 9 19 10 23 11
REMARK SMILES IDX 20 12 22 13 21 14 10 15 11 16 9 17 8 19 26 20 5 21 27 22
REMARK SMILES IDX 4 23 28 24 3 25 6 26 7 27 2 28 1 29
REMARK H PARENT 9 18
REMARK Flexibility Score: inf
ROOT
ATOM      1  C   UNL     1     -14.993 205.599 112.809  1.00  0.00     0.178 C 
ENDROOT
BRANCH   1   2
ATOM      2  S   UNL     1     -13.688 204.430 112.318  1.00  0.00    -0.076 SA
BRANCH   2   3
ATOM      3  C   UNL     1     -12.372 205.526 112.064  1.00  0.00     0.191 A 
ATOM      4  C   UNL     1     -11.146 205.153 114.228  1.00  0.00     0.154 C 
ATOM      5  N   UNL     1     -11.334 205.735 112.926  1.00  0.00    -0.305 N 
ATOM      6  C   UNL     1     -10.546 206.703 112.332  1.00  0.00     0.164 A 
ATOM      7  N   UNL     1     -12.244 206.298 111.011  1.00  0.00    -0.123 NA
ATOM      8  N   UNL     1     -11.113 207.047 111.185  1.00  0.00    -0.129 NA
BRANCH   6   9
ATOM      9  C   UNL     1      -9.348 207.331 112.881  1.00  0.00     0.019 A 
ATOM     10  C   UNL     1      -9.497 208.292 113.892  1.00  0.00     0.012 A 
ATOM     11  C   UNL     1      -8.064 207.040 112.416  1.00  0.00     0.012 A 
ATOM     12  C   UNL     1      -8.386 208.919 114.453  1.00  0.00     0.001 A 
ATOM     13  C   UNL     1      -6.949 207.670 112.978  1.00  0.00     0.001 A 
ATOM     14  C   UNL     1      -7.111 208.603 113.999  1.00  0.00     0.000 A 
ENDBRANCH   6   9
ENDBRANCH   2   3
ENDBRANCH   1   2
BRANCH   1  15
ATOM     15  C   UNL     1     -15.377 205.475 114.280  1.00  0.00     0.234 C 
ATOM     16  O   UNL     1     -16.347 206.097 114.726  1.00  0.00    -0.274 OA
ATOM     17  N   UNL     1     -14.604 204.580 114.991  1.00  0.00    -0.322 N 
ATOM     18  H   UNL     1     -13.788 204.188 114.528  1.00  0.00     0.170 HD
BRANCH  17  19
ATOM     19  C   UNL     1     -14.768 204.149 116.325  1.00  0.00     0.085 A 
ATOM     20  C   UNL     1     -15.545 203.056 116.703  1.00  0.00     0.054 A 
ATOM     21  C   UNL     1     -14.075 204.859 117.321  1.00  0.00     0.146 A 
ATOM     22  C   UNL     1     -15.626 202.686 118.053  1.00  0.00     0.085 A 
ATOM     23  C   UNL     1     -14.181 204.513 118.672  1.00  0.00     0.096 A 
ATOM     24  Cl  UNL     1     -16.583 201.305 118.448  1.00  0.00    -0.080 Cl
ATOM     25  C   UNL     1     -14.948 203.408 119.051  1.00  0.00     0.141 A 
BRANCH  21  26
ATOM     26  O   UNL     1     -13.358 205.978 116.954  1.00  0.00    -0.494 OA
ATOM     27  C   UNL     1     -13.957 207.173 117.462  1.00  0.00     0.278 C 
ENDBRANCH  21  26
BRANCH  25  28
ATOM     28  O   UNL     1     -15.094 202.973 120.344  1.00  0.00    -0.495 OA
ATOM     29  C   UNL     1     -14.382 203.667 121.363  1.00  0.00     0.278 C 
ENDBRANCH  25  28
ENDBRANCH  17  19
ENDBRANCH   1  15
TORSDOF 7
ENDMDL
