MODEL 1
REMARK minimizedAffinity -8.63983059
REMARK minimizedRMSD -1
REMARK SMILES CCOc1ccc2nc(SCC(=O)Nc3c(C)n(C)n(-c4ccccc4)c3=O)sc2c1
REMARK SMILES IDX 11 1 10 2 9 3 4 4 5 5 31 6 6 7 30 8 7 9 29 10 8 11 3 12 2 13
REMARK SMILES IDX 1 14 12 15 13 16 14 17 15 19 16 20 27 21 18 22 17 23 20 24
REMARK SMILES IDX 28 25 19 26 21 27 22 28 26 29 23 30 25 31 24 32
REMARK H PARENT 14 18
REMARK Flexibility Score: inf
ROOT
ATOM      1  C   UNL     1     -15.545 201.870 118.206  1.00  0.00     0.177 C 
ENDROOT
BRANCH   1   2
ATOM      2  S   UNL     1     -17.108 200.948 118.324  1.00  0.00    -0.086 SA
BRANCH   2   3
ATOM      3  C   UNL     1     -17.947 201.924 119.510  1.00  0.00     0.151 A 
ATOM      4  C   UNL     1     -20.187 204.545 122.739  1.00  0.00     0.120 A 
ATOM      5  C   UNL     1     -21.230 203.928 122.049  1.00  0.00     0.049 A 
ATOM      6  C   UNL     1     -18.861 204.284 122.381  1.00  0.00     0.067 A 
ATOM      7  C   UNL     1     -20.982 203.051 120.986  1.00  0.00     0.034 A 
ATOM      8  C   UNL     1     -18.620 203.400 121.312  1.00  0.00     0.059 A 
ATOM      9  C   UNL     1     -19.654 202.781 120.609  1.00  0.00     0.083 A 
ATOM     10  S   UNL     1     -17.113 202.888 120.650  1.00  0.00    -0.108 S 
ATOM     11  N   UNL     1     -19.256 201.937 119.585  1.00  0.00    -0.230 NA
BRANCH   4  12
ATOM     12  O   UNL     1     -20.597 205.368 123.751  1.00  0.00    -0.494 OA
BRANCH  12  13
ATOM     13  C   UNL     1     -20.433 204.940 125.103  1.00  0.00     0.226 C 
ATOM     14  C   UNL     1     -21.759 204.486 125.689  1.00  0.00     0.049 C 
ENDBRANCH  12  13
ENDBRANCH   4  12
ENDBRANCH   2   3
ENDBRANCH   1   2
BRANCH   1  15
ATOM     15  C   UNL     1     -15.656 202.990 117.183  1.00  0.00     0.235 C 
ATOM     16  O   UNL     1     -16.755 203.421 116.850  1.00  0.00    -0.274 OA
ATOM     17  N   UNL     1     -14.444 203.340 116.612  1.00  0.00    -0.319 N 
ATOM     18  H   UNL     1     -13.669 202.724 116.820  1.00  0.00     0.170 HD
BRANCH  17  19
ATOM     19  C   UNL     1     -14.202 204.364 115.736  1.00  0.00     0.130 C 
ATOM     20  C   UNL     1     -13.732 205.587 116.050  1.00  0.00     0.061 C 
ATOM     21  C   UNL     1     -14.463 204.403 114.254  1.00  0.00     0.295 C 
ATOM     22  N   UNL     1     -13.600 206.433 114.940  1.00  0.00    -0.283 N 
ATOM     23  C   UNL     1     -13.333 206.080 117.406  1.00  0.00     0.069 C 
ATOM     24  N   UNL     1     -13.987 205.649 113.815  1.00  0.00    -0.216 N 
ATOM     25  O   UNL     1     -15.009 203.528 113.603  1.00  0.00    -0.265 OA
ATOM     26  C   UNL     1     -14.270 207.746 114.998  1.00  0.00     0.172 C 
BRANCH  24  27
ATOM     27  C   UNL     1     -13.559 205.969 112.499  1.00  0.00     0.067 A 
ATOM     28  C   UNL     1     -12.200 206.169 112.206  1.00  0.00     0.028 A 
ATOM     29  C   UNL     1     -14.477 206.076 111.445  1.00  0.00     0.028 A 
ATOM     30  C   UNL     1     -11.775 206.481 110.911  1.00  0.00     0.002 A 
ATOM     31  C   UNL     1     -14.054 206.389 110.148  1.00  0.00     0.002 A 
ATOM     32  C   UNL     1     -12.704 206.595 109.882  1.00  0.00     0.000 A 
ENDBRANCH  24  27
ENDBRANCH  17  19
ENDBRANCH   1  15
TORSDOF 7
ENDMDL
MODEL 2
REMARK minimizedAffinity -8.57867527
REMARK minimizedRMSD -1
REMARK SMILES CCOc1ccc2nc(SCC(=O)Nc3c(C)n(C)n(-c4ccccc4)c3=O)sc2c1
REMARK SMILES IDX 11 1 10 2 9 3 4 4 5 5 31 6 6 7 30 8 7 9 29 10 8 11 3 12 2 13
REMARK SMILES IDX 1 14 12 15 13 16 14 17 15 19 16 20 27 21 18 22 17 23 20 24
REMARK SMILES IDX 28 25 19 26 21 27 22 28 26 29 23 30 25 31 24 32
REMARK H PARENT 14 18
REMARK Flexibility Score: inf
ROOT
ATOM      1  C   UNL     1     -15.682 202.136 118.759  1.00  0.00     0.177 C 
ENDROOT
BRANCH   1   2
ATOM      2  S   UNL     1     -15.423 203.044 120.313  1.00  0.00    -0.086 SA
BRANCH   2   3
ATOM      3  C   UNL     1     -17.020 202.904 121.015  1.00  0.00     0.151 A 
ATOM      4  C   UNL     1     -21.322 202.491 122.923  1.00  0.00     0.120 A 
ATOM      5  C   UNL     1     -21.582 203.028 121.663  1.00  0.00     0.049 A 
ATOM      6  C   UNL     1     -20.007 202.214 123.308  1.00  0.00     0.067 A 
ATOM      7  C   UNL     1     -20.547 203.310 120.764  1.00  0.00     0.034 A 
ATOM      8  C   UNL     1     -18.971 202.499 122.397  1.00  0.00     0.059 A 
ATOM      9  C   UNL     1     -19.216 203.042 121.135  1.00  0.00     0.083 A 
ATOM     10  S   UNL     1     -17.273 202.268 122.582  1.00  0.00    -0.108 S 
ATOM     11  N   UNL     1     -18.094 203.265 120.355  1.00  0.00    -0.230 NA
BRANCH   4  12
ATOM     12  O   UNL     1     -22.441 202.271 123.678  1.00  0.00    -0.494 OA
BRANCH  12  13
ATOM     13  C   UNL     1     -23.439 201.372 123.193  1.00  0.00     0.226 C 
ATOM     14  C   UNL     1     -23.036 199.930 123.451  1.00  0.00     0.049 C 
ENDBRANCH  12  13
ENDBRANCH   4  12
ENDBRANCH   2   3
ENDBRANCH   1   2
BRANCH   1  15
ATOM     15  C   UNL     1     -15.853 203.100 117.594  1.00  0.00     0.235 C 
ATOM     16  O   UNL     1     -16.953 203.262 117.078  1.00  0.00    -0.274 OA
ATOM     17  N   UNL     1     -14.659 203.628 117.134  1.00  0.00    -0.319 N 
ATOM     18  H   UNL     1     -13.819 203.208 117.512  1.00  0.00     0.170 HD
BRANCH  17  19
ATOM     19  C   UNL     1     -14.489 204.585 116.169  1.00  0.00     0.130 C 
ATOM     20  C   UNL     1     -14.146 205.872 116.374  1.00  0.00     0.061 C 
ATOM     21  C   UNL     1     -14.711 204.460 114.685  1.00  0.00     0.295 C 
ATOM     22  N   UNL     1     -14.063 206.620 115.191  1.00  0.00    -0.283 N 
ATOM     23  C   UNL     1     -13.835 206.525 117.684  1.00  0.00     0.069 C 
ATOM     24  N   UNL     1     -14.342 205.701 114.139  1.00  0.00    -0.216 N 
ATOM     25  O   UNL     1     -15.152 203.480 114.111  1.00  0.00    -0.265 OA
ATOM     26  C   UNL     1     -14.856 207.861 115.111  1.00  0.00     0.172 C 
BRANCH  24  27
ATOM     27  C   UNL     1     -13.909 205.936 112.807  1.00  0.00     0.067 A 
ATOM     28  C   UNL     1     -12.545 206.068 112.500  1.00  0.00     0.028 A 
ATOM     29  C   UNL     1     -14.828 206.025 111.752  1.00  0.00     0.028 A 
ATOM     30  C   UNL     1     -12.115 206.298 111.189  1.00  0.00     0.002 A 
ATOM     31  C   UNL     1     -14.400 206.256 110.439  1.00  0.00     0.002 A 
ATOM     32  C   UNL     1     -13.045 206.395 110.158  1.00  0.00     0.000 A 
ENDBRANCH  24  27
ENDBRANCH  17  19
ENDBRANCH   1  15
TORSDOF 7
ENDMDL
MODEL 3
REMARK minimizedAffinity -8.27327251
REMARK minimizedRMSD -1
REMARK SMILES CCOc1ccc2nc(SCC(=O)Nc3c(C)n(C)n(-c4ccccc4)c3=O)sc2c1
REMARK SMILES IDX 11 1 10 2 9 3 4 4 5 5 31 6 6 7 30 8 7 9 29 10 8 11 3 12 2 13
REMARK SMILES IDX 1 14 12 15 13 16 14 17 15 19 16 20 27 21 18 22 17 23 20 24
REMARK SMILES IDX 28 25 19 26 21 27 22 28 26 29 23 30 25 31 24 32
REMARK H PARENT 14 18
REMARK Flexibility Score: inf
ROOT
ATOM      1  C   UNL     1     -16.345 201.852 119.400  1.00  0.00     0.177 C 
ENDROOT
BRANCH   1   2
ATOM      2  S   UNL     1     -18.139 201.972 119.132  1.00  0.00    -0.086 SA
BRANCH   2   3
ATOM      3  C   UNL     1     -18.577 203.008 120.474  1.00  0.00     0.151 A 
ATOM      4  C   UNL     1     -19.791 205.815 124.073  1.00  0.00     0.120 A 
ATOM      5  C   UNL     1     -18.412 206.003 123.972  1.00  0.00     0.049 A 
ATOM      6  C   UNL     1     -20.445 204.950 123.192  1.00  0.00     0.067 A 
ATOM      7  C   UNL     1     -17.655 205.331 123.006  1.00  0.00     0.034 A 
ATOM      8  C   UNL     1     -19.676 204.279 122.222  1.00  0.00     0.059 A 
ATOM      9  C   UNL     1     -18.296 204.452 122.113  1.00  0.00     0.083 A 
ATOM     10  S   UNL     1     -20.193 203.165 121.012  1.00  0.00    -0.108 S 
ATOM     11  N   UNL     1     -17.681 203.724 121.109  1.00  0.00    -0.230 NA
BRANCH   4  12
ATOM     12  O   UNL     1     -20.383 206.548 125.065  1.00  0.00    -0.494 OA
BRANCH  12  13
ATOM     13  C   UNL     1     -20.037 206.283 126.424  1.00  0.00     0.226 C 
ATOM     14  C   UNL     1     -20.805 205.083 126.952  1.00  0.00     0.049 C 
ENDBRANCH  12  13
ENDBRANCH   4  12
ENDBRANCH   2   3
ENDBRANCH   1   2
BRANCH   1  15
ATOM     15  C   UNL     1     -15.584 202.246 118.143  1.00  0.00     0.235 C 
ATOM     16  O   UNL     1     -15.053 201.389 117.444  1.00  0.00    -0.274 OA
ATOM     17  N   UNL     1     -15.460 203.614 117.979  1.00  0.00    -0.319 N 
ATOM     18  H   UNL     1     -15.746 204.178 118.769  1.00  0.00     0.170 HD
BRANCH  17  19
ATOM     19  C   UNL     1     -14.917 204.278 116.911  1.00  0.00     0.130 C 
ATOM     20  C   UNL     1     -13.616 204.582 116.740  1.00  0.00     0.061 C 
ATOM     21  C   UNL     1     -15.629 204.884 115.731  1.00  0.00     0.295 C 
ATOM     22  N   UNL     1     -13.360 205.283 115.551  1.00  0.00    -0.283 N 
ATOM     23  C   UNL     1     -12.479 204.229 117.647  1.00  0.00     0.069 C 
ATOM     24  N   UNL     1     -14.620 205.392 114.896  1.00  0.00    -0.216 N 
ATOM     25  O   UNL     1     -16.838 204.934 115.577  1.00  0.00    -0.265 OA
ATOM     26  C   UNL     1     -12.640 206.566 115.657  1.00  0.00     0.172 C 
BRANCH  24  27
ATOM     27  C   UNL     1     -14.717 205.605 113.495  1.00  0.00     0.067 A 
ATOM     28  C   UNL     1     -14.091 204.737 112.585  1.00  0.00     0.028 A 
ATOM     29  C   UNL     1     -15.456 206.675 112.974  1.00  0.00     0.028 A 
ATOM     30  C   UNL     1     -14.187 204.942 111.204  1.00  0.00     0.002 A 
ATOM     31  C   UNL     1     -15.553 206.883 111.593  1.00  0.00     0.002 A 
ATOM     32  C   UNL     1     -14.916 206.019 110.709  1.00  0.00     0.000 A 
ENDBRANCH  24  27
ENDBRANCH  17  19
ENDBRANCH   1  15
TORSDOF 7
ENDMDL
MODEL 4
REMARK minimizedAffinity -8.10156631
REMARK minimizedRMSD -1
REMARK SMILES CCOc1ccc2nc(SCC(=O)Nc3c(C)n(C)n(-c4ccccc4)c3=O)sc2c1
REMARK SMILES IDX 11 1 10 2 9 3 4 4 5 5 31 6 6 7 30 8 7 9 29 10 8 11 3 12 2 13
REMARK SMILES IDX 1 14 12 15 13 16 14 17 15 19 16 20 27 21 18 22 17 23 20 24
REMARK SMILES IDX 28 25 19 26 21 27 22 28 26 29 23 30 25 31 24 32
REMARK H PARENT 14 18
REMARK Flexibility Score: inf
ROOT
ATOM      1  C   UNL     1     -17.573 201.057 117.938  1.00  0.00     0.177 C 
ENDROOT
BRANCH   1   2
ATOM      2  S   UNL     1     -17.624 200.227 119.555  1.00  0.00    -0.086 SA
BRANCH   2   3
ATOM      3  C   UNL     1     -17.632 201.622 120.613  1.00  0.00     0.151 A 
ATOM      4  C   UNL     1     -17.657 205.409 123.435  1.00  0.00     0.120 A 
ATOM      5  C   UNL     1     -16.620 204.632 123.952  1.00  0.00     0.049 A 
ATOM      6  C   UNL     1     -18.377 204.963 122.323  1.00  0.00     0.067 A 
ATOM      7  C   UNL     1     -16.284 203.397 123.386  1.00  0.00     0.034 A 
ATOM      8  C   UNL     1     -18.031 203.721 121.758  1.00  0.00     0.059 A 
ATOM      9  C   UNL     1     -17.001 202.931 122.268  1.00  0.00     0.083 A 
ATOM     10  S   UNL     1     -18.726 202.919 120.400  1.00  0.00    -0.108 S 
ATOM     11  N   UNL     1     -16.780 201.736 121.603  1.00  0.00    -0.230 NA
BRANCH   4  12
ATOM     12  O   UNL     1     -17.856 206.588 124.099  1.00  0.00    -0.494 OA
BRANCH  12  13
ATOM     13  C   UNL     1     -18.474 206.564 125.385  1.00  0.00     0.226 C 
ATOM     14  C   UNL     1     -19.779 207.342 125.370  1.00  0.00     0.049 C 
ENDBRANCH  12  13
ENDBRANCH   4  12
ENDBRANCH   2   3
ENDBRANCH   1   2
BRANCH   1  15
ATOM     15  C   UNL     1     -16.223 201.721 117.716  1.00  0.00     0.235 C 
ATOM     16  O   UNL     1     -15.190 201.063 117.772  1.00  0.00    -0.274 OA
ATOM     17  N   UNL     1     -16.299 203.098 117.589  1.00  0.00    -0.319 N 
ATOM     18  H   UNL     1     -17.197 203.509 117.806  1.00  0.00     0.170 HD
BRANCH  17  19
ATOM     19  C   UNL     1     -15.280 203.963 117.290  1.00  0.00     0.130 C 
ATOM     20  C   UNL     1     -14.488 204.597 118.176  1.00  0.00     0.061 C 
ATOM     21  C   UNL     1     -14.852 204.466 115.937  1.00  0.00     0.295 C 
ATOM     22  N   UNL     1     -13.539 205.436 117.572  1.00  0.00    -0.283 N 
ATOM     23  C   UNL     1     -14.514 204.466 119.666  1.00  0.00     0.069 C 
ATOM     24  N   UNL     1     -13.731 205.279 116.170  1.00  0.00    -0.216 N 
ATOM     25  O   UNL     1     -15.407 204.224 114.878  1.00  0.00    -0.265 OA
ATOM     26  C   UNL     1     -13.499 206.845 118.006  1.00  0.00     0.172 C 
BRANCH  24  27
ATOM     27  C   UNL     1     -12.701 205.577 115.237  1.00  0.00     0.067 A 
ATOM     28  C   UNL     1     -12.856 206.599 114.287  1.00  0.00     0.028 A 
ATOM     29  C   UNL     1     -11.489 204.872 115.248  1.00  0.00     0.028 A 
ATOM     30  C   UNL     1     -11.843 206.896 113.369  1.00  0.00     0.002 A 
ATOM     31  C   UNL     1     -10.474 205.167 114.330  1.00  0.00     0.002 A 
ATOM     32  C   UNL     1     -10.653 206.176 113.389  1.00  0.00     0.000 A 
ENDBRANCH  24  27
ENDBRANCH  17  19
ENDBRANCH   1  15
TORSDOF 7
ENDMDL
MODEL 5
REMARK minimizedAffinity -8.07311916
REMARK minimizedRMSD -1
REMARK SMILES CCOc1ccc2nc(SCC(=O)Nc3c(C)n(C)n(-c4ccccc4)c3=O)sc2c1
REMARK SMILES IDX 11 1 10 2 9 3 4 4 5 5 31 6 6 7 30 8 7 9 29 10 8 11 3 12 2 13
REMARK SMILES IDX 1 14 12 15 13 16 14 17 15 19 16 20 27 21 18 22 17 23 20 24
REMARK SMILES IDX 28 25 19 26 21 27 22 28 26 29 23 30 25 31 24 32
REMARK H PARENT 14 18
REMARK Flexibility Score: inf
ROOT
ATOM      1  C   UNL     1     -14.808 203.710 114.581  1.00  0.00     0.177 C 
ENDROOT
BRANCH   1   2
ATOM      2  S   UNL     1     -15.194 204.940 113.299  1.00  0.00    -0.086 SA
BRANCH   2   3
ATOM      3  C   UNL     1     -13.613 205.659 113.082  1.00  0.00     0.151 A 
ATOM      4  C   UNL     1      -9.359 207.631 112.517  1.00  0.00     0.120 A 
ATOM      5  C   UNL     1      -9.656 207.142 111.244  1.00  0.00     0.049 A 
ATOM      6  C   UNL     1     -10.272 207.463 113.561  1.00  0.00     0.067 A 
ATOM      7  C   UNL     1     -10.856 206.471 110.984  1.00  0.00     0.034 A 
ATOM      8  C   UNL     1     -11.478 206.787 113.291  1.00  0.00     0.059 A 
ATOM      9  C   UNL     1     -11.785 206.289 112.025  1.00  0.00     0.083 A 
ATOM     10  S   UNL     1     -12.782 206.434 114.360  1.00  0.00    -0.108 S 
ATOM     11  N   UNL     1     -13.010 205.650 111.918  1.00  0.00    -0.230 NA
BRANCH   4  12
ATOM     12  O   UNL     1      -8.150 208.265 112.602  1.00  0.00    -0.494 OA
BRANCH  12  13
ATOM     13  C   UNL     1      -6.954 207.487 112.567  1.00  0.00     0.226 C 
ATOM     14  C   UNL     1      -6.669 206.874 113.928  1.00  0.00     0.049 C 
ENDBRANCH  12  13
ENDBRANCH   4  12
ENDBRANCH   2   3
ENDBRANCH   1   2
BRANCH   1  15
ATOM     15  C   UNL     1     -15.512 204.051 115.885  1.00  0.00     0.235 C 
ATOM     16  O   UNL     1     -15.946 205.181 116.080  1.00  0.00    -0.274 OA
ATOM     17  N   UNL     1     -15.477 203.027 116.816  1.00  0.00    -0.319 N 
ATOM     18  H   UNL     1     -14.872 202.249 116.589  1.00  0.00     0.170 HD
BRANCH  17  19
ATOM     19  C   UNL     1     -16.094 202.992 118.038  1.00  0.00     0.130 C 
ATOM     20  C   UNL     1     -15.575 203.417 119.206  1.00  0.00     0.061 C 
ATOM     21  C   UNL     1     -17.443 202.417 118.384  1.00  0.00     0.295 C 
ATOM     22  N   UNL     1     -16.440 203.239 120.297  1.00  0.00    -0.283 N 
ATOM     23  C   UNL     1     -14.238 204.054 119.421  1.00  0.00     0.069 C 
ATOM     24  N   UNL     1     -17.633 202.686 119.750  1.00  0.00    -0.216 N 
ATOM     25  O   UNL     1     -18.180 201.819 117.619  1.00  0.00    -0.265 OA
ATOM     26  C   UNL     1     -15.926 202.491 121.460  1.00  0.00     0.172 C 
BRANCH  24  27
ATOM     27  C   UNL     1     -18.881 202.794 120.418  1.00  0.00     0.067 A 
ATOM     28  C   UNL     1     -19.366 204.039 120.851  1.00  0.00     0.028 A 
ATOM     29  C   UNL     1     -19.679 201.666 120.650  1.00  0.00     0.028 A 
ATOM     30  C   UNL     1     -20.596 204.150 121.508  1.00  0.00     0.002 A 
ATOM     31  C   UNL     1     -20.910 201.774 121.307  1.00  0.00     0.002 A 
ATOM     32  C   UNL     1     -21.367 203.015 121.738  1.00  0.00     0.000 A 
ENDBRANCH  24  27
ENDBRANCH  17  19
ENDBRANCH   1  15
TORSDOF 7
ENDMDL
MODEL 6
REMARK minimizedAffinity -8.04169178
REMARK minimizedRMSD -1
REMARK SMILES CCOc1ccc2nc(SCC(=O)Nc3c(C)n(C)n(-c4ccccc4)c3=O)sc2c1
REMARK SMILES IDX 11 1 10 2 9 3 4 4 5 5 31 6 6 7 30 8 7 9 29 10 8 11 3 12 2 13
REMARK SMILES IDX 1 14 12 15 13 16 14 17 15 19 16 20 27 21 18 22 17 23 20 24
REMARK SMILES IDX 28 25 19 26 21 27 22 28 26 29 23 30 25 31 24 32
REMARK H PARENT 14 18
REMARK Flexibility Score: inf
ROOT
ATOM      1  C   UNL     1     -15.198 203.805 115.773  1.00  0.00     0.177 C 
ENDROOT
BRANCH   1   2
ATOM      2  S   UNL     1     -14.528 202.685 117.040  1.00  0.00    -0.086 SA
BRANCH   2   3
ATOM      3  C   UNL     1     -15.900 202.598 118.124  1.00  0.00     0.151 A 
ATOM      4  C   UNL     1     -19.581 202.340 121.073  1.00  0.00     0.120 A 
ATOM      5  C   UNL     1     -20.165 202.174 119.817  1.00  0.00     0.049 A 
ATOM      6  C   UNL     1     -18.199 202.517 121.183  1.00  0.00     0.067 A 
ATOM      7  C   UNL     1     -19.396 202.191 118.648  1.00  0.00     0.034 A 
ATOM      8  C   UNL     1     -17.432 202.531 120.002  1.00  0.00     0.059 A 
ATOM      9  C   UNL     1     -18.004 202.373 118.739  1.00  0.00     0.083 A 
ATOM     10  S   UNL     1     -15.729 202.726 119.820  1.00  0.00    -0.108 S 
ATOM     11  N   UNL     1     -17.118 202.409 117.675  1.00  0.00    -0.230 NA
BRANCH   4  12
ATOM     12  O   UNL     1     -20.469 202.294 122.112  1.00  0.00    -0.494 OA
BRANCH  12  13
ATOM     13  C   UNL     1     -21.301 203.425 122.364  1.00  0.00     0.226 C 
ATOM     14  C   UNL     1     -20.622 204.393 123.318  1.00  0.00     0.049 C 
ENDBRANCH  12  13
ENDBRANCH   4  12
ENDBRANCH   2   3
ENDBRANCH   1   2
BRANCH   1  15
ATOM     15  C   UNL     1     -14.178 204.871 115.403  1.00  0.00     0.235 C 
ATOM     16  O   UNL     1     -14.060 205.882 116.087  1.00  0.00    -0.274 OA
ATOM     17  N   UNL     1     -13.542 204.632 114.197  1.00  0.00    -0.319 N 
ATOM     18  H   UNL     1     -13.926 203.880 113.641  1.00  0.00     0.170 HD
BRANCH  17  19
ATOM     19  C   UNL     1     -12.517 205.351 113.640  1.00  0.00     0.130 C 
ATOM     20  C   UNL     1     -12.570 206.055 112.494  1.00  0.00     0.061 C 
ATOM     21  C   UNL     1     -11.094 205.467 114.119  1.00  0.00     0.295 C 
ATOM     22  N   UNL     1     -11.355 206.677 112.168  1.00  0.00    -0.283 N 
ATOM     23  C   UNL     1     -13.757 206.244 111.603  1.00  0.00     0.069 C 
ATOM     24  N   UNL     1     -10.467 206.363 113.237  1.00  0.00    -0.216 N 
ATOM     25  O   UNL     1     -10.609 204.869 115.064  1.00  0.00    -0.265 OA
ATOM     26  C   UNL     1     -10.786 206.406 110.834  1.00  0.00     0.172 C 
BRANCH  24  27
ATOM     27  C   UNL     1      -9.327 207.161 113.519  1.00  0.00     0.067 A 
ATOM     28  C   UNL     1      -8.070 206.848 112.976  1.00  0.00     0.028 A 
ATOM     29  C   UNL     1      -9.422 208.297 114.334  1.00  0.00     0.028 A 
ATOM     30  C   UNL     1      -6.945 207.632 113.251  1.00  0.00     0.002 A 
ATOM     31  C   UNL     1      -8.298 209.084 114.611  1.00  0.00     0.002 A 
ATOM     32  C   UNL     1      -7.060 208.750 114.072  1.00  0.00     0.000 A 
ENDBRANCH  24  27
ENDBRANCH  17  19
ENDBRANCH   1  15
TORSDOF 7
ENDMDL
MODEL 7
REMARK minimizedAffinity -7.77216005
REMARK minimizedRMSD -1
REMARK SMILES CCOc1ccc2nc(SCC(=O)Nc3c(C)n(C)n(-c4ccccc4)c3=O)sc2c1
REMARK SMILES IDX 11 1 10 2 9 3 4 4 5 5 31 6 6 7 30 8 7 9 29 10 8 11 3 12 2 13
REMARK SMILES IDX 1 14 12 15 13 16 14 17 15 19 16 20 27 21 18 22 17 23 20 24
REMARK SMILES IDX 28 25 19 26 21 27 22 28 26 29 23 30 25 31 24 32
REMARK H PARENT 14 18
REMARK Flexibility Score: inf
ROOT
ATOM      1  C   UNL     1     -14.422 206.269 120.738  1.00  0.00     0.177 C 
ENDROOT
BRANCH   1   2
ATOM      2  S   UNL     1     -14.290 204.514 121.193  1.00  0.00    -0.086 SA
BRANCH   2   3
ATOM      3  C   UNL     1     -15.986 204.080 121.223  1.00  0.00     0.151 A 
ATOM      4  C   UNL     1     -20.559 202.905 121.342  1.00  0.00     0.120 A 
ATOM      5  C   UNL     1     -20.067 202.166 120.265  1.00  0.00     0.049 A 
ATOM      6  C   UNL     1     -19.701 203.730 122.074  1.00  0.00     0.067 A 
ATOM      7  C   UNL     1     -18.722 202.237 119.888  1.00  0.00     0.034 A 
ATOM      8  C   UNL     1     -18.348 203.794 121.689  1.00  0.00     0.059 A 
ATOM      9  C   UNL     1     -17.844 203.066 120.611  1.00  0.00     0.083 A 
ATOM     10  S   UNL     1     -17.066 204.709 122.390  1.00  0.00    -0.108 S 
ATOM     11  N   UNL     1     -16.493 203.235 120.358  1.00  0.00    -0.230 NA
BRANCH   4  12
ATOM     12  O   UNL     1     -21.893 202.720 121.582  1.00  0.00    -0.494 OA
BRANCH  12  13
ATOM     13  C   UNL     1     -22.300 202.130 122.817  1.00  0.00     0.226 C 
ATOM     14  C   UNL     1     -22.193 200.617 122.752  1.00  0.00     0.049 C 
ENDBRANCH  12  13
ENDBRANCH   4  12
ENDBRANCH   2   3
ENDBRANCH   1   2
BRANCH   1  15
ATOM     15  C   UNL     1     -13.904 206.501 119.327  1.00  0.00     0.235 C 
ATOM     16  O   UNL     1     -13.229 207.492 119.068  1.00  0.00    -0.274 OA
ATOM     17  N   UNL     1     -14.378 205.583 118.406  1.00  0.00    -0.319 N 
ATOM     18  H   UNL     1     -15.116 204.973 118.736  1.00  0.00     0.170 HD
BRANCH  17  19
ATOM     19  C   UNL     1     -14.026 205.469 117.088  1.00  0.00     0.130 C 
ATOM     20  C   UNL     1     -13.127 204.607 116.575  1.00  0.00     0.061 C 
ATOM     21  C   UNL     1     -14.489 206.306 115.925  1.00  0.00     0.295 C 
ATOM     22  N   UNL     1     -12.965 204.734 115.187  1.00  0.00    -0.283 N 
ATOM     23  C   UNL     1     -12.351 203.564 117.316  1.00  0.00     0.069 C 
ATOM     24  N   UNL     1     -13.883 205.747 114.787  1.00  0.00    -0.216 N 
ATOM     25  O   UNL     1     -15.216 207.282 115.994  1.00  0.00    -0.265 OA
ATOM     26  C   UNL     1     -11.597 204.947 114.676  1.00  0.00     0.172 C 
BRANCH  24  27
ATOM     27  C   UNL     1     -14.356 205.841 113.451  1.00  0.00     0.067 A 
ATOM     28  C   UNL     1     -13.489 206.168 112.396  1.00  0.00     0.028 A 
ATOM     29  C   UNL     1     -15.700 205.593 113.140  1.00  0.00     0.028 A 
ATOM     30  C   UNL     1     -13.951 206.259 111.079  1.00  0.00     0.002 A 
ATOM     31  C   UNL     1     -16.165 205.685 111.823  1.00  0.00     0.002 A 
ATOM     32  C   UNL     1     -15.292 206.020 110.794  1.00  0.00     0.000 A 
ENDBRANCH  24  27
ENDBRANCH  17  19
ENDBRANCH   1  15
TORSDOF 7
ENDMDL
MODEL 8
REMARK minimizedAffinity -7.6432066
REMARK minimizedRMSD -1
REMARK SMILES CCOc1ccc2nc(SCC(=O)Nc3c(C)n(C)n(-c4ccccc4)c3=O)sc2c1
REMARK SMILES IDX 11 1 10 2 9 3 4 4 5 5 31 6 6 7 30 8 7 9 29 10 8 11 3 12 2 13
REMARK SMILES IDX 1 14 12 15 13 16 14 17 15 19 16 20 27 21 18 22 17 23 20 24
REMARK SMILES IDX 28 25 19 26 21 27 22 28 26 29 23 30 25 31 24 32
REMARK H PARENT 14 18
REMARK Flexibility Score: inf
ROOT
ATOM      1  C   UNL     1     -14.872 203.670 119.250  1.00  0.00     0.177 C 
ENDROOT
BRANCH   1   2
ATOM      2  S   UNL     1     -15.440 202.595 117.899  1.00  0.00    -0.086 SA
BRANCH   2   3
ATOM      3  C   UNL     1     -14.772 203.452 116.527  1.00  0.00     0.151 A 
ATOM      4  C   UNL     1     -12.969 205.799 112.845  1.00  0.00     0.120 A 
ATOM      5  C   UNL     1     -14.001 205.054 112.275  1.00  0.00     0.049 A 
ATOM      6  C   UNL     1     -12.720 205.712 114.218  1.00  0.00     0.067 A 
ATOM      7  C   UNL     1     -14.798 204.203 113.048  1.00  0.00     0.034 A 
ATOM      8  C   UNL     1     -13.528 204.855 114.990  1.00  0.00     0.059 A 
ATOM      9  C   UNL     1     -14.560 204.100 114.431  1.00  0.00     0.083 A 
ATOM     10  S   UNL     1     -13.465 204.543 116.684  1.00  0.00    -0.108 S 
ATOM     11  N   UNL     1     -15.265 203.306 115.320  1.00  0.00    -0.230 NA
BRANCH   4  12
ATOM     12  O   UNL     1     -12.288 206.582 111.955  1.00  0.00    -0.494 OA
BRANCH  12  13
ATOM     13  C   UNL     1     -11.070 206.096 111.391  1.00  0.00     0.226 C 
ATOM     14  C   UNL     1     -10.816 206.725 110.032  1.00  0.00     0.049 C 
ENDBRANCH  12  13
ENDBRANCH   4  12
ENDBRANCH   2   3
ENDBRANCH   1   2
BRANCH   1  15
ATOM     15  C   UNL     1     -15.761 203.512 120.475  1.00  0.00     0.235 C 
ATOM     16  O   UNL     1     -15.271 203.249 121.568  1.00  0.00    -0.274 OA
ATOM     17  N   UNL     1     -17.113 203.562 120.186  1.00  0.00    -0.319 N 
ATOM     18  H   UNL     1     -17.353 203.544 119.203  1.00  0.00     0.170 HD
BRANCH  17  19
ATOM     19  C   UNL     1     -18.155 203.544 121.075  1.00  0.00     0.130 C 
ATOM     20  C   UNL     1     -19.161 202.649 121.107  1.00  0.00     0.061 C 
ATOM     21  C   UNL     1     -18.467 204.538 122.163  1.00  0.00     0.295 C 
ATOM     22  N   UNL     1     -20.094 202.897 122.125  1.00  0.00    -0.283 N 
ATOM     23  C   UNL     1     -19.341 201.462 120.214  1.00  0.00     0.069 C 
ATOM     24  N   UNL     1     -19.600 204.035 122.825  1.00  0.00    -0.216 N 
ATOM     25  O   UNL     1     -17.860 205.573 122.379  1.00  0.00    -0.265 OA
ATOM     26  C   UNL     1     -21.512 203.016 121.738  1.00  0.00     0.172 C 
BRANCH  24  27
ATOM     27  C   UNL     1     -19.982 204.312 124.165  1.00  0.00     0.067 A 
ATOM     28  C   UNL     1     -19.806 203.358 125.180  1.00  0.00     0.028 A 
ATOM     29  C   UNL     1     -20.528 205.552 124.521  1.00  0.00     0.028 A 
ATOM     30  C   UNL     1     -20.179 203.628 126.501  1.00  0.00     0.002 A 
ATOM     31  C   UNL     1     -20.903 205.825 125.841  1.00  0.00     0.002 A 
ATOM     32  C   UNL     1     -20.731 204.862 126.831  1.00  0.00     0.000 A 
ENDBRANCH  24  27
ENDBRANCH  17  19
ENDBRANCH   1  15
TORSDOF 7
ENDMDL
MODEL 9
REMARK minimizedAffinity -7.60738325
REMARK minimizedRMSD -1
REMARK SMILES CCOc1ccc2nc(SCC(=O)Nc3c(C)n(C)n(-c4ccccc4)c3=O)sc2c1
REMARK SMILES IDX 11 1 10 2 9 3 4 4 5 5 31 6 6 7 30 8 7 9 29 10 8 11 3 12 2 13
REMARK SMILES IDX 1 14 12 15 13 16 14 17 15 19 16 20 27 21 18 22 17 23 20 24
REMARK SMILES IDX 28 25 19 26 21 27 22 28 26 29 23 30 25 31 24 32
REMARK H PARENT 14 18
REMARK Flexibility Score: inf
ROOT
ATOM      1  C   UNL     1     -11.824 205.422 118.774  1.00  0.00     0.177 C 
ENDROOT
BRANCH   1   2
ATOM      2  S   UNL     1     -11.724 206.970 117.827  1.00  0.00    -0.086 SA
BRANCH   2   3
ATOM      3  C   UNL     1     -12.817 206.593 116.512  1.00  0.00     0.151 A 
ATOM      4  C   UNL     1     -15.794 205.577 112.989  1.00  0.00     0.120 A 
ATOM      5  C   UNL     1     -14.759 204.660 112.807  1.00  0.00     0.049 A 
ATOM      6  C   UNL     1     -15.744 206.487 114.049  1.00  0.00     0.067 A 
ATOM      7  C   UNL     1     -13.652 204.632 113.663  1.00  0.00     0.034 A 
ATOM      8  C   UNL     1     -14.628 206.451 114.907  1.00  0.00     0.059 A 
ATOM      9  C   UNL     1     -13.583 205.543 114.733  1.00  0.00     0.083 A 
ATOM     10  S   UNL     1     -14.289 207.432 116.283  1.00  0.00    -0.108 S 
ATOM     11  N   UNL     1     -12.556 205.632 115.659  1.00  0.00    -0.230 NA
BRANCH   4  12
ATOM     12  O   UNL     1     -16.802 205.470 112.071  1.00  0.00    -0.494 OA
BRANCH  12  13
ATOM     13  C   UNL     1     -17.572 206.628 111.748  1.00  0.00     0.226 C 
ATOM     14  C   UNL     1     -19.021 206.444 112.165  1.00  0.00     0.049 C 
ENDBRANCH  12  13
ENDBRANCH   4  12
ENDBRANCH   2   3
ENDBRANCH   1   2
BRANCH   1  15
ATOM     15  C   UNL     1     -13.109 205.369 119.587  1.00  0.00     0.235 C 
ATOM     16  O   UNL     1     -13.655 206.403 119.955  1.00  0.00    -0.274 OA
ATOM     17  N   UNL     1     -13.480 204.086 119.950  1.00  0.00    -0.319 N 
ATOM     18  H   UNL     1     -12.794 203.364 119.773  1.00  0.00     0.170 HD
BRANCH  17  19
ATOM     19  C   UNL     1     -14.625 203.702 120.598  1.00  0.00     0.130 C 
ATOM     20  C   UNL     1     -14.796 203.618 121.931  1.00  0.00     0.061 C 
ATOM     21  C   UNL     1     -15.919 203.221 119.995  1.00  0.00     0.295 C 
ATOM     22  N   UNL     1     -16.077 203.180 122.300  1.00  0.00    -0.283 N 
ATOM     23  C   UNL     1     -13.799 203.961 122.993  1.00  0.00     0.069 C 
ATOM     24  N   UNL     1     -16.789 203.014 121.078  1.00  0.00    -0.216 N 
ATOM     25  O   UNL     1     -16.125 203.031 118.809  1.00  0.00    -0.265 OA
ATOM     26  C   UNL     1     -16.167 202.012 123.196  1.00  0.00     0.172 C 
BRANCH  24  27
ATOM     27  C   UNL     1     -18.209 203.040 121.031  1.00  0.00     0.067 A 
ATOM     28  C   UNL     1     -18.944 201.898 120.673  1.00  0.00     0.028 A 
ATOM     29  C   UNL     1     -18.923 204.200 121.361  1.00  0.00     0.028 A 
ATOM     30  C   UNL     1     -20.341 201.920 120.628  1.00  0.00     0.002 A 
ATOM     31  C   UNL     1     -20.322 204.224 121.316  1.00  0.00     0.002 A 
ATOM     32  C   UNL     1     -21.030 203.086 120.947  1.00  0.00     0.000 A 
ENDBRANCH  24  27
ENDBRANCH  17  19
ENDBRANCH   1  15
TORSDOF 7
ENDMDL
