MODEL 1
REMARK minimizedAffinity -6.91524696
REMARK minimizedRMSD -1
REMARK SMILES COc1ccc(NC(=O)CSc2nnnn2C)cc1
REMARK SMILES IDX 8 1 9 2 7 3 10 5 11 6 12 7 16 8 17 9 15 10 14 11 13 12 6 13
REMARK SMILES IDX 5 14 18 15 4 16 19 17 3 18 2 19 1 20
REMARK H PARENT 7 4
REMARK Flexibility Score: inf
ROOT
ATOM      1  C   UNL     1     -13.484 205.391 114.242  1.00  0.00     0.234 C 
ATOM      2  O   UNL     1     -13.719 206.514 114.681  1.00  0.00    -0.274 OA
ATOM      3  N   UNL     1     -12.335 204.995 113.577  1.00  0.00    -0.325 N 
ATOM      4  H   UNL     1     -12.239 203.999 113.390  1.00  0.00     0.169 HD
ENDROOT
BRANCH   1   5
ATOM      5  C   UNL     1     -14.494 204.266 114.413  1.00  0.00     0.178 C 
BRANCH   5   6
ATOM      6  S   UNL     1     -15.117 203.712 112.797  1.00  0.00    -0.075 SA
BRANCH   6   7
ATOM      7  C   UNL     1     -16.227 204.977 112.417  1.00  0.00     0.209 A 
ATOM      8  N   UNL     1     -15.965 205.991 111.545  1.00  0.00    -0.224 N 
ATOM      9  C   UNL     1     -14.788 206.258 110.768  1.00  0.00     0.179 C 
ATOM     10  N   UNL     1     -17.028 206.814 111.492  1.00  0.00    -0.045 NA
ATOM     11  N   UNL     1     -17.918 206.291 112.325  1.00  0.00    -0.023 NA
ATOM     12  N   UNL     1     -17.432 205.145 112.909  1.00  0.00    -0.102 NA
ENDBRANCH   6   7
ENDBRANCH   5   6
ENDBRANCH   1   5
BRANCH   3  13
ATOM     13  C   UNL     1     -11.219 205.785 113.239  1.00  0.00     0.041 A 
ATOM     14  C   UNL     1     -10.154 205.802 114.147  1.00  0.00     0.030 A 
ATOM     15  C   UNL     1     -11.114 206.533 112.067  1.00  0.00     0.030 A 
ATOM     16  C   UNL     1      -9.009 206.560 113.883  1.00  0.00     0.048 A 
ATOM     17  C   UNL     1      -9.964 207.292 111.804  1.00  0.00     0.048 A 
ATOM     18  C   UNL     1      -8.906 207.309 112.711  1.00  0.00     0.119 A 
BRANCH  18  19
ATOM     19  O   UNL     1      -7.737 208.004 112.575  1.00  0.00    -0.497 OA
ATOM     20  C   UNL     1      -6.534 207.245 112.602  1.00  0.00     0.278 C 
ENDBRANCH  18  19
ENDBRANCH   3  13
TORSDOF 5
ENDMDL
MODEL 2
REMARK minimizedAffinity -6.45971394
REMARK minimizedRMSD -1
REMARK SMILES COc1ccc(NC(=O)CSc2nnnn2C)cc1
REMARK SMILES IDX 8 1 9 2 7 3 10 5 11 6 12 7 16 8 17 9 15 10 14 11 13 12 6 13
REMARK SMILES IDX 5 14 18 15 4 16 19 17 3 18 2 19 1 20
REMARK H PARENT 7 4
REMARK Flexibility Score: inf
ROOT
ATOM      1  C   UNL     1     -15.432 204.293 116.215  1.00  0.00     0.234 C 
ATOM      2  O   UNL     1     -16.501 204.755 115.822  1.00  0.00    -0.274 OA
ATOM      3  N   UNL     1     -14.257 204.214 115.486  1.00  0.00    -0.325 N 
ATOM      4  H   UNL     1     -13.425 203.923 115.997  1.00  0.00     0.169 HD
ENDROOT
BRANCH   1   5
ATOM      5  C   UNL     1     -15.299 203.746 117.629  1.00  0.00     0.178 C 
BRANCH   5   6
ATOM      6  S   UNL     1     -15.812 202.003 117.692  1.00  0.00    -0.075 SA
BRANCH   6   7
ATOM      7  C   UNL     1     -17.491 202.163 118.052  1.00  0.00     0.209 A 
ATOM      8  N   UNL     1     -17.983 202.550 119.263  1.00  0.00    -0.224 N 
ATOM      9  C   UNL     1     -17.289 202.904 120.469  1.00  0.00     0.179 C 
ATOM     10  N   UNL     1     -19.327 202.553 119.215  1.00  0.00    -0.045 NA
ATOM     11  N   UNL     1     -19.634 202.172 117.981  1.00  0.00    -0.023 NA
ATOM     12  N   UNL     1     -18.499 201.925 117.245  1.00  0.00    -0.102 NA
ENDBRANCH   6   7
ENDBRANCH   5   6
ENDBRANCH   1   5
BRANCH   3  13
ATOM     13  C   UNL     1     -14.040 204.611 114.152  1.00  0.00     0.041 A 
ATOM     14  C   UNL     1     -13.240 205.740 113.947  1.00  0.00     0.030 A 
ATOM     15  C   UNL     1     -14.565 203.949 113.043  1.00  0.00     0.030 A 
ATOM     16  C   UNL     1     -12.977 206.196 112.651  1.00  0.00     0.048 A 
ATOM     17  C   UNL     1     -14.299 204.407 111.744  1.00  0.00     0.048 A 
ATOM     18  C   UNL     1     -13.504 205.534 111.543  1.00  0.00     0.119 A 
BRANCH  18  19
ATOM     19  O   UNL     1     -13.170 206.081 110.335  1.00  0.00    -0.497 OA
ATOM     20  C   UNL     1     -11.914 206.743 110.257  1.00  0.00     0.278 C 
ENDBRANCH  18  19
ENDBRANCH   3  13
TORSDOF 5
ENDMDL
MODEL 3
REMARK minimizedAffinity -6.344769
REMARK minimizedRMSD -1
REMARK SMILES COc1ccc(NC(=O)CSc2nnnn2C)cc1
REMARK SMILES IDX 8 1 9 2 7 3 10 5 11 6 12 7 16 8 17 9 15 10 14 11 13 12 6 13
REMARK SMILES IDX 5 14 18 15 4 16 19 17 3 18 2 19 1 20
REMARK H PARENT 7 4
REMARK Flexibility Score: inf
ROOT
ATOM      1  C   UNL     1     -13.989 204.241 116.709  1.00  0.00     0.234 C 
ATOM      2  O   UNL     1     -12.965 204.920 116.665  1.00  0.00    -0.274 OA
ATOM      3  N   UNL     1     -14.901 204.068 115.681  1.00  0.00    -0.325 N 
ATOM      4  H   UNL     1     -15.630 203.373 115.833  1.00  0.00     0.169 HD
ENDROOT
BRANCH   1   5
ATOM      5  C   UNL     1     -14.358 203.477 117.972  1.00  0.00     0.178 C 
BRANCH   5   6
ATOM      6  S   UNL     1     -14.890 201.787 117.566  1.00  0.00    -0.075 SA
BRANCH   6   7
ATOM      7  C   UNL     1     -16.604 201.939 117.684  1.00  0.00     0.209 A 
ATOM      8  N   UNL     1     -17.428 200.977 118.188  1.00  0.00    -0.224 N 
ATOM      9  C   UNL     1     -17.114 199.680 118.717  1.00  0.00     0.179 C 
ATOM     10  N   UNL     1     -18.702 201.404 118.118  1.00  0.00    -0.045 NA
ATOM     11  N   UNL     1     -18.637 202.614 117.578  1.00  0.00    -0.023 NA
ATOM     12  N   UNL     1     -17.335 202.961 117.302  1.00  0.00    -0.102 NA
ENDBRANCH   6   7
ENDBRANCH   5   6
ENDBRANCH   1   5
BRANCH   3  13
ATOM     13  C   UNL     1     -14.871 204.643 114.395  1.00  0.00     0.041 A 
ATOM     14  C   UNL     1     -14.683 203.774 113.315  1.00  0.00     0.030 A 
ATOM     15  C   UNL     1     -15.023 206.006 114.143  1.00  0.00     0.030 A 
ATOM     16  C   UNL     1     -14.643 204.268 112.008  1.00  0.00     0.048 A 
ATOM     17  C   UNL     1     -14.984 206.499 112.830  1.00  0.00     0.048 A 
ATOM     18  C   UNL     1     -14.793 205.631 111.756  1.00  0.00     0.119 A 
BRANCH  18  19
ATOM     19  O   UNL     1     -14.735 205.981 110.436  1.00  0.00    -0.497 OA
ATOM     20  C   UNL     1     -13.509 206.531 109.971  1.00  0.00     0.278 C 
ENDBRANCH  18  19
ENDBRANCH   3  13
TORSDOF 5
ENDMDL
MODEL 4
REMARK minimizedAffinity -5.67973661
REMARK minimizedRMSD -1
REMARK SMILES COc1ccc(NC(=O)CSc2nnnn2C)cc1
REMARK SMILES IDX 8 1 9 2 7 3 10 5 11 6 12 7 16 8 17 9 15 10 14 11 13 12 6 13
REMARK SMILES IDX 5 14 18 15 4 16 19 17 3 18 2 19 1 20
REMARK H PARENT 7 4
REMARK Flexibility Score: inf
ROOT
ATOM      1  C   UNL     1     -12.042 205.794 113.989  1.00  0.00     0.234 C 
ATOM      2  O   UNL     1     -11.913 207.003 113.813  1.00  0.00    -0.274 OA
ATOM      3  N   UNL     1     -13.161 205.037 113.683  1.00  0.00    -0.325 N 
ATOM      4  H   UNL     1     -13.064 204.027 113.770  1.00  0.00     0.169 HD
ENDROOT
BRANCH   1   5
ATOM      5  C   UNL     1     -10.909 204.973 114.586  1.00  0.00     0.178 C 
BRANCH   5   6
ATOM      6  S   UNL     1     -10.697 205.360 116.349  1.00  0.00    -0.075 SA
BRANCH   6   7
ATOM      7  C   UNL     1     -12.225 204.871 116.984  1.00  0.00     0.209 A 
ATOM      8  N   UNL     1     -13.233 205.730 117.306  1.00  0.00    -0.224 N 
ATOM      9  C   UNL     1     -13.289 207.162 117.210  1.00  0.00     0.179 C 
ATOM     10  N   UNL     1     -14.274 205.030 117.790  1.00  0.00    -0.045 NA
ATOM     11  N   UNL     1     -13.890 203.760 117.753  1.00  0.00    -0.023 NA
ATOM     12  N   UNL     1     -12.614 203.646 117.253  1.00  0.00    -0.102 NA
ENDBRANCH   6   7
ENDBRANCH   5   6
ENDBRANCH   1   5
BRANCH   3  13
ATOM     13  C   UNL     1     -14.382 205.483 113.140  1.00  0.00     0.041 A 
ATOM     14  C   UNL     1     -14.409 205.741 111.765  1.00  0.00     0.030 A 
ATOM     15  C   UNL     1     -15.548 205.672 113.882  1.00  0.00     0.030 A 
ATOM     16  C   UNL     1     -15.584 206.185 111.151  1.00  0.00     0.048 A 
ATOM     17  C   UNL     1     -16.726 206.116 113.263  1.00  0.00     0.048 A 
ATOM     18  C   UNL     1     -16.749 206.375 111.894  1.00  0.00     0.119 A 
BRANCH  18  19
ATOM     19  O   UNL     1     -17.826 206.810 111.173  1.00  0.00    -0.497 OA
ATOM     20  C   UNL     1     -19.074 206.864 111.854  1.00  0.00     0.278 C 
ENDBRANCH  18  19
ENDBRANCH   3  13
TORSDOF 5
ENDMDL
MODEL 5
REMARK minimizedAffinity -5.60249519
REMARK minimizedRMSD -1
REMARK SMILES COc1ccc(NC(=O)CSc2nnnn2C)cc1
REMARK SMILES IDX 8 1 9 2 7 3 10 5 11 6 12 7 16 8 17 9 15 10 14 11 13 12 6 13
REMARK SMILES IDX 5 14 18 15 4 16 19 17 3 18 2 19 1 20
REMARK H PARENT 7 4
REMARK Flexibility Score: inf
ROOT
ATOM      1  C   UNL     1     -11.719 206.405 116.772  1.00  0.00     0.234 C 
ATOM      2  O   UNL     1     -11.706 207.633 116.813  1.00  0.00    -0.274 OA
ATOM      3  N   UNL     1     -11.505 205.621 115.651  1.00  0.00    -0.325 N 
ATOM      4  H   UNL     1     -11.421 204.618 115.807  1.00  0.00     0.169 HD
ENDROOT
BRANCH   1   5
ATOM      5  C   UNL     1     -11.978 205.591 118.032  1.00  0.00     0.178 C 
BRANCH   5   6
ATOM      6  S   UNL     1     -13.716 205.738 118.544  1.00  0.00    -0.075 SA
BRANCH   6   7
ATOM      7  C   UNL     1     -14.494 204.739 117.374  1.00  0.00     0.209 A 
ATOM      8  N   UNL     1     -15.085 205.205 116.237  1.00  0.00    -0.224 N 
ATOM      9  C   UNL     1     -15.206 206.549 115.746  1.00  0.00     0.179 C 
ATOM     10  N   UNL     1     -15.613 204.172 115.556  1.00  0.00    -0.045 NA
ATOM     11  N   UNL     1     -15.336 203.096 116.282  1.00  0.00    -0.023 NA
ATOM     12  N   UNL     1     -14.639 203.434 117.418  1.00  0.00    -0.102 NA
ENDBRANCH   6   7
ENDBRANCH   5   6
ENDBRANCH   1   5
BRANCH   3  13
ATOM     13  C   UNL     1     -11.257 206.050 114.332  1.00  0.00     0.041 A 
ATOM     14  C   UNL     1     -12.277 205.850 113.396  1.00  0.00     0.030 A 
ATOM     15  C   UNL     1     -10.073 206.659 113.916  1.00  0.00     0.030 A 
ATOM     16  C   UNL     1     -12.108 206.251 112.067  1.00  0.00     0.048 A 
ATOM     17  C   UNL     1      -9.906 207.062 112.583  1.00  0.00     0.048 A 
ATOM     18  C   UNL     1     -10.923 206.858 111.652  1.00  0.00     0.119 A 
BRANCH  18  19
ATOM     19  O   UNL     1     -10.887 207.202 110.329  1.00  0.00    -0.497 OA
ATOM     20  C   UNL     1     -12.064 206.953 109.570  1.00  0.00     0.278 C 
ENDBRANCH  18  19
ENDBRANCH   3  13
TORSDOF 5
ENDMDL
MODEL 6
REMARK minimizedAffinity -5.58125067
REMARK minimizedRMSD -1
REMARK SMILES COc1ccc(NC(=O)CSc2nnnn2C)cc1
REMARK SMILES IDX 8 1 9 2 7 3 10 5 11 6 12 7 16 8 17 9 15 10 14 11 13 12 6 13
REMARK SMILES IDX 5 14 18 15 4 16 19 17 3 18 2 19 1 20
REMARK H PARENT 7 4
REMARK Flexibility Score: inf
ROOT
ATOM      1  C   UNL     1     -11.113 206.450 115.758  1.00  0.00     0.234 C 
ATOM      2  O   UNL     1     -11.752 205.784 116.570  1.00  0.00    -0.274 OA
ATOM      3  N   UNL     1     -11.477 206.713 114.448  1.00  0.00    -0.325 N 
ATOM      4  H   UNL     1     -10.904 207.387 113.943  1.00  0.00     0.169 HD
ENDROOT
BRANCH   1   5
ATOM      5  C   UNL     1      -9.790 207.091 116.152  1.00  0.00     0.178 C 
BRANCH   5   6
ATOM      6  S   UNL     1      -9.460 208.557 115.130  1.00  0.00    -0.075 SA
BRANCH   6   7
ATOM      7  C   UNL     1      -8.278 207.941 114.035  1.00  0.00     0.209 A 
ATOM      8  N   UNL     1      -6.963 208.302 114.041  1.00  0.00    -0.224 N 
ATOM      9  C   UNL     1      -6.264 209.219 114.896  1.00  0.00     0.179 C 
ATOM     10  N   UNL     1      -6.322 207.656 113.051  1.00  0.00    -0.045 NA
ATOM     11  N   UNL     1      -7.249 206.913 112.460  1.00  0.00    -0.023 NA
ATOM     12  N   UNL     1      -8.473 207.081 113.063  1.00  0.00    -0.102 NA
ENDBRANCH   6   7
ENDBRANCH   5   6
ENDBRANCH   1   5
BRANCH   3  13
ATOM     13  C   UNL     1     -12.623 206.261 113.764  1.00  0.00     0.041 A 
ATOM     14  C   UNL     1     -13.803 206.988 113.952  1.00  0.00     0.030 A 
ATOM     15  C   UNL     1     -12.644 205.152 112.918  1.00  0.00     0.030 A 
ATOM     16  C   UNL     1     -14.982 206.604 113.305  1.00  0.00     0.048 A 
ATOM     17  C   UNL     1     -13.828 204.770 112.270  1.00  0.00     0.048 A 
ATOM     18  C   UNL     1     -15.003 205.494 112.462  1.00  0.00     0.119 A 
BRANCH  18  19
ATOM     19  O   UNL     1     -16.217 205.227 111.893  1.00  0.00    -0.497 OA
ATOM     20  C   UNL     1     -17.367 205.694 112.587  1.00  0.00     0.278 C 
ENDBRANCH  18  19
ENDBRANCH   3  13
TORSDOF 5
ENDMDL
MODEL 7
REMARK minimizedAffinity -5.57277584
REMARK minimizedRMSD -1
REMARK SMILES COc1ccc(NC(=O)CSc2nnnn2C)cc1
REMARK SMILES IDX 8 1 9 2 7 3 10 5 11 6 12 7 16 8 17 9 15 10 14 11 13 12 6 13
REMARK SMILES IDX 5 14 18 15 4 16 19 17 3 18 2 19 1 20
REMARK H PARENT 7 4
REMARK Flexibility Score: inf
ROOT
ATOM      1  C   UNL     1     -11.845 204.515 116.822  1.00  0.00     0.234 C 
ATOM      2  O   UNL     1     -10.968 203.740 116.446  1.00  0.00    -0.274 OA
ATOM      3  N   UNL     1     -12.592 205.360 116.018  1.00  0.00    -0.325 N 
ATOM      4  H   UNL     1     -13.367 205.846 116.465  1.00  0.00     0.169 HD
ENDROOT
BRANCH   1   5
ATOM      5  C   UNL     1     -12.215 204.609 118.295  1.00  0.00     0.178 C 
BRANCH   5   6
ATOM      6  S   UNL     1     -13.831 205.417 118.500  1.00  0.00    -0.075 SA
BRANCH   6   7
ATOM      7  C   UNL     1     -14.903 204.123 118.110  1.00  0.00     0.209 A 
ATOM      8  N   UNL     1     -15.393 203.232 119.017  1.00  0.00    -0.224 N 
ATOM      9  C   UNL     1     -15.168 203.140 120.432  1.00  0.00     0.179 C 
ATOM     10  N   UNL     1     -16.180 202.343 118.384  1.00  0.00    -0.045 NA
ATOM     11  N   UNL     1     -16.160 202.704 117.108  1.00  0.00    -0.023 NA
ATOM     12  N   UNL     1     -15.368 203.812 116.921  1.00  0.00    -0.102 NA
ENDBRANCH   6   7
ENDBRANCH   5   6
ENDBRANCH   1   5
BRANCH   3  13
ATOM     13  C   UNL     1     -12.493 205.534 114.623  1.00  0.00     0.041 A 
ATOM     14  C   UNL     1     -11.588 206.498 114.165  1.00  0.00     0.030 A 
ATOM     15  C   UNL     1     -13.230 204.807 113.689  1.00  0.00     0.030 A 
ATOM     16  C   UNL     1     -11.431 206.728 112.795  1.00  0.00     0.048 A 
ATOM     17  C   UNL     1     -13.070 205.038 112.315  1.00  0.00     0.048 A 
ATOM     18  C   UNL     1     -12.170 206.001 111.862  1.00  0.00     0.119 A 
BRANCH  18  19
ATOM     19  O   UNL     1     -11.922 206.323 110.556  1.00  0.00    -0.497 OA
ATOM     20  C   UNL     1     -10.591 206.706 110.233  1.00  0.00     0.278 C 
ENDBRANCH  18  19
ENDBRANCH   3  13
TORSDOF 5
ENDMDL
MODEL 8
REMARK minimizedAffinity -5.56873751
REMARK minimizedRMSD -1
REMARK SMILES COc1ccc(NC(=O)CSc2nnnn2C)cc1
REMARK SMILES IDX 8 1 9 2 7 3 10 5 11 6 12 7 16 8 17 9 15 10 14 11 13 12 6 13
REMARK SMILES IDX 5 14 18 15 4 16 19 17 3 18 2 19 1 20
REMARK H PARENT 7 4
REMARK Flexibility Score: inf
ROOT
ATOM      1  C   UNL     1     -15.367 206.128 113.744  1.00  0.00     0.234 C 
ATOM      2  O   UNL     1     -16.394 206.589 114.238  1.00  0.00    -0.274 OA
ATOM      3  N   UNL     1     -14.463 205.287 114.371  1.00  0.00    -0.325 N 
ATOM      4  H   UNL     1     -13.730 204.890 113.785  1.00  0.00     0.169 HD
ENDROOT
BRANCH   1   5
ATOM      5  C   UNL     1     -14.985 206.455 112.308  1.00  0.00     0.178 C 
BRANCH   5   6
ATOM      6  S   UNL     1     -13.908 205.162 111.621  1.00  0.00    -0.075 SA
BRANCH   6   7
ATOM      7  C   UNL     1     -12.574 206.101 111.061  1.00  0.00     0.209 A 
ATOM      8  N   UNL     1     -11.445 206.339 111.786  1.00  0.00    -0.224 N 
ATOM      9  C   UNL     1     -11.089 205.904 113.107  1.00  0.00     0.179 C 
ATOM     10  N   UNL     1     -10.615 207.119 111.070  1.00  0.00    -0.045 NA
ATOM     11  N   UNL     1     -11.246 207.342 109.924  1.00  0.00    -0.023 NA
ATOM     12  N   UNL     1     -12.469 206.713 109.904  1.00  0.00    -0.102 NA
ENDBRANCH   6   7
ENDBRANCH   5   6
ENDBRANCH   1   5
BRANCH   3  13
ATOM     13  C   UNL     1     -14.505 204.806 115.694  1.00  0.00     0.041 A 
ATOM     14  C   UNL     1     -14.102 205.687 116.704  1.00  0.00     0.030 A 
ATOM     15  C   UNL     1     -14.926 203.525 116.049  1.00  0.00     0.030 A 
ATOM     16  C   UNL     1     -14.118 205.285 118.043  1.00  0.00     0.048 A 
ATOM     17  C   UNL     1     -14.942 203.124 117.393  1.00  0.00     0.048 A 
ATOM     18  C   UNL     1     -14.537 204.003 118.396  1.00  0.00     0.119 A 
BRANCH  18  19
ATOM     19  O   UNL     1     -14.505 203.738 119.737  1.00  0.00    -0.497 OA
ATOM     20  C   UNL     1     -15.737 203.375 120.349  1.00  0.00     0.278 C 
ENDBRANCH  18  19
ENDBRANCH   3  13
TORSDOF 5
ENDMDL
MODEL 9
REMARK minimizedAffinity -5.43707561
REMARK minimizedRMSD -1
REMARK SMILES COc1ccc(NC(=O)CSc2nnnn2C)cc1
REMARK SMILES IDX 8 1 9 2 7 3 10 5 11 6 12 7 16 8 17 9 15 10 14 11 13 12 6 13
REMARK SMILES IDX 5 14 18 15 4 16 19 17 3 18 2 19 1 20
REMARK H PARENT 7 4
REMARK Flexibility Score: inf
ROOT
ATOM      1  C   UNL     1     -15.561 203.236 117.696  1.00  0.00     0.234 C 
ATOM      2  O   UNL     1     -15.035 203.860 118.616  1.00  0.00    -0.274 OA
ATOM      3  N   UNL     1     -16.798 202.614 117.731  1.00  0.00    -0.325 N 
ATOM      4  H   UNL     1     -17.148 202.249 116.847  1.00  0.00     0.169 HD
ENDROOT
BRANCH   1   5
ATOM      5  C   UNL     1     -14.857 203.097 116.354  1.00  0.00     0.178 C 
BRANCH   5   6
ATOM      6  S   UNL     1     -14.388 204.728 115.704  1.00  0.00    -0.075 SA
BRANCH   6   7
ATOM      7  C   UNL     1     -15.593 204.963 114.492  1.00  0.00     0.209 A 
ATOM      8  N   UNL     1     -15.487 204.516 113.208  1.00  0.00    -0.224 N 
ATOM      9  C   UNL     1     -14.428 203.786 112.571  1.00  0.00     0.179 C 
ATOM     10  N   UNL     1     -16.584 204.881 112.521  1.00  0.00    -0.045 NA
ATOM     11  N   UNL     1     -17.340 205.538 113.391  1.00  0.00    -0.023 NA
ATOM     12  N   UNL     1     -16.735 205.597 114.624  1.00  0.00    -0.102 NA
ENDBRANCH   6   7
ENDBRANCH   5   6
ENDBRANCH   1   5
BRANCH   3  13
ATOM     13  C   UNL     1     -17.695 202.537 118.815  1.00  0.00     0.041 A 
ATOM     14  C   UNL     1     -19.024 202.218 118.518  1.00  0.00     0.030 A 
ATOM     15  C   UNL     1     -17.336 202.751 120.145  1.00  0.00     0.030 A 
ATOM     16  C   UNL     1     -19.974 202.120 119.539  1.00  0.00     0.048 A 
ATOM     17  C   UNL     1     -18.290 202.651 121.168  1.00  0.00     0.048 A 
ATOM     18  C   UNL     1     -19.615 202.336 120.869  1.00  0.00     0.119 A 
BRANCH  18  19
ATOM     19  O   UNL     1     -20.637 202.210 121.768  1.00  0.00    -0.497 OA
ATOM     20  C   UNL     1     -20.298 202.323 123.145  1.00  0.00     0.278 C 
ENDBRANCH  18  19
ENDBRANCH   3  13
TORSDOF 5
ENDMDL
