MODEL 1
REMARK minimizedAffinity -8.54231644
REMARK minimizedRMSD -1
REMARK SMILES CCOc1ccc(C(C)=O)cc1Cc1c(O)nc(N)nc1O
REMARK SMILES IDX 7 1 6 2 5 3 4 4 12 5 11 6 8 7 10 8 9 9 13 10 14 11 15 12
REMARK SMILES IDX 21 13 17 14 20 15 18 16 16 17 22 19 19 21 3 24 2 25 1 26
REMARK H PARENT 16 18 22 20 19 22 19 23
REMARK Flexibility Score: inf
ROOT
ATOM      1  C   UNL     1     -16.110 205.883 112.230  1.00  0.00     0.018 A 
ATOM      2  C   UNL     1     -15.546 206.200 110.992  1.00  0.00     0.015 A 
ATOM      3  C   UNL     1     -14.171 206.060 110.778  1.00  0.00     0.047 A 
ATOM      4  C   UNL     1     -13.339 205.594 111.800  1.00  0.00     0.122 A 
ATOM      5  C   UNL     1     -13.894 205.267 113.052  1.00  0.00    -0.000 A 
ATOM      6  C   UNL     1     -15.281 205.417 113.255  1.00  0.00     0.019 A 
ENDROOT
BRANCH   1   7
ATOM      7  C   UNL     1     -17.583 206.055 112.409  1.00  0.00     0.159 C 
ATOM      8  O   UNL     1     -18.165 205.444 113.302  1.00  0.00    -0.295 OA
ATOM      9  C   UNL     1     -18.328 206.983 111.485  1.00  0.00     0.093 C 
ENDBRANCH   1   7
BRANCH   5  10
ATOM     10  C   UNL     1     -13.037 204.774 114.202  1.00  0.00     0.086 C 
BRANCH  10  11
ATOM     11  C   UNL     1     -13.173 205.590 115.450  1.00  0.00     0.081 A 
ATOM     12  C   UNL     1     -12.555 206.799 115.671  1.00  0.00     0.223 A 
ATOM     13  C   UNL     1     -13.943 205.191 116.515  1.00  0.00     0.223 A 
ATOM     14  N   UNL     1     -12.663 207.509 116.806  1.00  0.00    -0.177 NA
ATOM     15  N   UNL     1     -14.101 205.848 117.669  1.00  0.00    -0.177 NA
ATOM     16  C   UNL     1     -13.450 207.008 117.754  1.00  0.00     0.226 A 
BRANCH  12  17
ATOM     17  O   UNL     1     -11.739 207.387 114.749  1.00  0.00    -0.493 OA
ATOM     18  H   UNL     1     -11.985 207.058 113.867  1.00  0.00     0.295 HD
ENDBRANCH  12  17
BRANCH  13  19
ATOM     19  O   UNL     1     -14.638 204.022 116.482  1.00  0.00    -0.493 OA
ATOM     20  H   UNL     1     -15.053 204.047 117.365  1.00  0.00     0.295 HD
ENDBRANCH  13  19
BRANCH  16  21
ATOM     21  N   UNL     1     -13.564 207.722 118.928  1.00  0.00    -0.368 N 
ATOM     22  H   UNL     1     -13.763 207.105 119.702  1.00  0.00     0.159 HD
ATOM     23  H   UNL     1     -12.771 208.343 119.020  1.00  0.00     0.159 HD
ENDBRANCH  16  21
ENDBRANCH  10  11
ENDBRANCH   5  10
BRANCH   4  24
ATOM     24  O   UNL     1     -11.980 205.444 111.689  1.00  0.00    -0.494 OA
BRANCH  24  25
ATOM     25  C   UNL     1     -11.205 206.632 111.497  1.00  0.00     0.226 C 
ATOM     26  C   UNL     1     -10.583 206.566 110.114  1.00  0.00     0.049 C 
ENDBRANCH  24  25
ENDBRANCH   4  24
TORSDOF 8
ENDMDL
MODEL 2
REMARK minimizedAffinity -8.34090328
REMARK minimizedRMSD -1
REMARK SMILES CCOc1ccc(C(C)=O)cc1Cc1c(O)nc(N)nc1O
REMARK SMILES IDX 7 1 6 2 5 3 4 4 12 5 11 6 8 7 10 8 9 9 13 10 14 11 15 12
REMARK SMILES IDX 21 13 17 14 20 15 18 16 16 17 22 19 19 21 3 24 2 25 1 26
REMARK H PARENT 16 18 22 20 19 22 19 23
REMARK Flexibility Score: inf
ROOT
ATOM      1  C   UNL     1     -16.010 206.123 112.472  1.00  0.00     0.018 A 
ATOM      2  C   UNL     1     -15.357 205.530 111.388  1.00  0.00     0.015 A 
ATOM      3  C   UNL     1     -13.961 205.474 111.342  1.00  0.00     0.047 A 
ATOM      4  C   UNL     1     -13.195 206.005 112.383  1.00  0.00     0.122 A 
ATOM      5  C   UNL     1     -13.839 206.603 113.484  1.00  0.00    -0.000 A 
ATOM      6  C   UNL     1     -15.247 206.657 113.516  1.00  0.00     0.019 A 
ENDROOT
BRANCH   1   7
ATOM      7  C   UNL     1     -17.503 206.163 112.471  1.00  0.00     0.159 C 
ATOM      8  O   UNL     1     -18.133 205.496 113.289  1.00  0.00    -0.295 OA
ATOM      9  C   UNL     1     -18.211 207.030 111.462  1.00  0.00     0.093 C 
ENDBRANCH   1   7
BRANCH   5  10
ATOM     10  C   UNL     1     -13.059 207.210 114.633  1.00  0.00     0.086 C 
BRANCH  10  11
ATOM     11  C   UNL     1     -13.112 206.403 115.893  1.00  0.00     0.081 A 
ATOM     12  C   UNL     1     -12.477 205.197 116.083  1.00  0.00     0.223 A 
ATOM     13  C   UNL     1     -13.824 206.802 116.998  1.00  0.00     0.223 A 
ATOM     14  N   UNL     1     -12.554 204.470 117.208  1.00  0.00    -0.177 NA
ATOM     15  N   UNL     1     -13.939 206.133 118.150  1.00  0.00    -0.177 NA
ATOM     16  C   UNL     1     -13.272 204.980 118.206  1.00  0.00     0.226 A 
BRANCH  12  17
ATOM     17  O   UNL     1     -11.715 204.608 115.117  1.00  0.00    -0.493 OA
ATOM     18  H   UNL     1     -11.392 205.301 114.514  1.00  0.00     0.295 HD
ENDBRANCH  12  17
BRANCH  13  19
ATOM     19  O   UNL     1     -14.516 207.973 117.005  1.00  0.00    -0.493 OA
ATOM     20  H   UNL     1     -14.892 207.942 117.905  1.00  0.00     0.295 HD
ENDBRANCH  13  19
BRANCH  16  21
ATOM     21  N   UNL     1     -13.368 204.239 119.364  1.00  0.00    -0.368 N 
ATOM     22  H   UNL     1     -14.234 204.437 119.842  1.00  0.00     0.159 HD
ATOM     23  H   UNL     1     -13.158 203.271 119.160  1.00  0.00     0.159 HD
ENDBRANCH  16  21
ENDBRANCH  10  11
ENDBRANCH   5  10
BRANCH   4  24
ATOM     24  O   UNL     1     -11.824 206.012 112.414  1.00  0.00    -0.494 OA
BRANCH  24  25
ATOM     25  C   UNL     1     -11.152 206.800 111.426  1.00  0.00     0.226 C 
ATOM     26  C   UNL     1     -10.043 207.571 112.118  1.00  0.00     0.049 C 
ENDBRANCH  24  25
ENDBRANCH   4  24
TORSDOF 8
ENDMDL
MODEL 3
REMARK minimizedAffinity -8.04737568
REMARK minimizedRMSD -1
REMARK SMILES CCOc1ccc(C(C)=O)cc1Cc1c(O)nc(N)nc1O
REMARK SMILES IDX 7 1 6 2 5 3 4 4 12 5 11 6 8 7 10 8 9 9 13 10 14 11 15 12
REMARK SMILES IDX 21 13 17 14 20 15 18 16 16 17 22 19 19 21 3 24 2 25 1 26
REMARK H PARENT 16 18 22 20 19 22 19 23
REMARK Flexibility Score: inf
ROOT
ATOM      1  C   UNL     1     -12.956 206.303 112.200  1.00  0.00     0.018 A 
ATOM      2  C   UNL     1     -13.893 205.984 111.215  1.00  0.00     0.015 A 
ATOM      3  C   UNL     1     -15.263 206.088 111.474  1.00  0.00     0.047 A 
ATOM      4  C   UNL     1     -15.718 206.519 112.724  1.00  0.00     0.122 A 
ATOM      5  C   UNL     1     -14.784 206.847 113.726  1.00  0.00    -0.000 A 
ATOM      6  C   UNL     1     -13.406 206.734 113.453  1.00  0.00     0.019 A 
ENDROOT
BRANCH   1   7
ATOM      7  C   UNL     1     -11.504 206.171 111.875  1.00  0.00     0.159 C 
ATOM      8  O   UNL     1     -10.729 205.713 112.713  1.00  0.00    -0.295 OA
ATOM      9  C   UNL     1     -11.017 206.602 110.516  1.00  0.00     0.093 C 
ENDBRANCH   1   7
BRANCH   5  10
ATOM     10  C   UNL     1     -15.220 207.303 115.105  1.00  0.00     0.086 C 
BRANCH  10  11
ATOM     11  C   UNL     1     -14.848 206.353 116.201  1.00  0.00     0.081 A 
ATOM     12  C   UNL     1     -13.885 206.589 117.155  1.00  0.00     0.223 A 
ATOM     13  C   UNL     1     -15.449 205.127 116.353  1.00  0.00     0.223 A 
ATOM     14  N   UNL     1     -13.542 205.718 118.117  1.00  0.00    -0.177 NA
ATOM     15  N   UNL     1     -15.162 204.216 117.288  1.00  0.00    -0.177 NA
ATOM     16  C   UNL     1     -14.212 204.569 118.153  1.00  0.00     0.226 A 
BRANCH  12  17
ATOM     17  O   UNL     1     -13.158 207.743 117.195  1.00  0.00    -0.493 OA
ATOM     18  H   UNL     1     -13.672 208.445 116.759  1.00  0.00     0.295 HD
ENDBRANCH  12  17
BRANCH  13  19
ATOM     19  O   UNL     1     -16.432 204.715 115.508  1.00  0.00    -0.493 OA
ATOM     20  H   UNL     1     -16.621 203.835 115.885  1.00  0.00     0.295 HD
ENDBRANCH  13  19
BRANCH  16  21
ATOM     21  N   UNL     1     -13.863 203.661 119.130  1.00  0.00    -0.368 N 
ATOM     22  H   UNL     1     -14.054 202.718 118.824  1.00  0.00     0.159 HD
ATOM     23  H   UNL     1     -12.929 203.864 119.458  1.00  0.00     0.159 HD
ENDBRANCH  16  21
ENDBRANCH  10  11
ENDBRANCH   5  10
BRANCH   4  24
ATOM     24  O   UNL     1     -17.038 206.632 113.074  1.00  0.00    -0.494 OA
BRANCH  24  25
ATOM     25  C   UNL     1     -17.996 205.988 112.228  1.00  0.00     0.226 C 
ATOM     26  C   UNL     1     -18.803 207.069 111.530  1.00  0.00     0.049 C 
ENDBRANCH  24  25
ENDBRANCH   4  24
TORSDOF 8
ENDMDL
MODEL 4
REMARK minimizedAffinity -7.84529018
REMARK minimizedRMSD -1
REMARK SMILES CCOc1ccc(C(C)=O)cc1Cc1c(O)nc(N)nc1O
REMARK SMILES IDX 7 1 6 2 5 3 4 4 12 5 11 6 8 7 10 8 9 9 13 10 14 11 15 12
REMARK SMILES IDX 21 13 17 14 20 15 18 16 16 17 22 19 19 21 3 24 2 25 1 26
REMARK H PARENT 16 18 22 20 19 22 19 23
REMARK Flexibility Score: inf
ROOT
ATOM      1  C   UNL     1      -9.607 207.061 112.452  1.00  0.00     0.018 A 
ATOM      2  C   UNL     1     -10.381 207.146 111.291  1.00  0.00     0.015 A 
ATOM      3  C   UNL     1     -11.607 206.479 111.202  1.00  0.00     0.047 A 
ATOM      4  C   UNL     1     -12.082 205.722 112.276  1.00  0.00     0.122 A 
ATOM      5  C   UNL     1     -11.315 205.629 113.453  1.00  0.00    -0.000 A 
ATOM      6  C   UNL     1     -10.079 206.303 113.529  1.00  0.00     0.019 A 
ENDROOT
BRANCH   1   7
ATOM      7  C   UNL     1      -8.303 207.786 112.495  1.00  0.00     0.159 C 
ATOM      8  O   UNL     1      -8.243 208.906 112.998  1.00  0.00    -0.295 OA
ATOM      9  C   UNL     1      -7.079 207.124 111.919  1.00  0.00     0.093 C 
ENDBRANCH   1   7
BRANCH   5  10
ATOM     10  C   UNL     1     -11.772 204.808 114.643  1.00  0.00     0.086 C 
BRANCH  10  11
ATOM     11  C   UNL     1     -12.168 205.631 115.829  1.00  0.00     0.081 A 
ATOM     12  C   UNL     1     -11.363 205.882 116.917  1.00  0.00     0.223 A 
ATOM     13  C   UNL     1     -13.404 206.221 115.942  1.00  0.00     0.223 A 
ATOM     14  N   UNL     1     -11.739 206.600 117.987  1.00  0.00    -0.177 NA
ATOM     15  N   UNL     1     -13.841 206.951 116.973  1.00  0.00    -0.177 NA
ATOM     16  C   UNL     1     -12.963 207.121 117.961  1.00  0.00     0.226 A 
BRANCH  12  17
ATOM     17  O   UNL     1     -10.094 205.393 117.020  1.00  0.00    -0.493 OA
ATOM     18  H   UNL     1      -9.755 205.226 116.124  1.00  0.00     0.295 HD
ENDBRANCH  12  17
BRANCH  13  19
ATOM     19  O   UNL     1     -14.338 206.091 114.962  1.00  0.00    -0.493 OA
ATOM     20  H   UNL     1     -15.067 206.608 115.354  1.00  0.00     0.295 HD
ENDBRANCH  13  19
BRANCH  16  21
ATOM     21  N   UNL     1     -13.366 207.853 119.058  1.00  0.00    -0.368 N 
ATOM     22  H   UNL     1     -14.368 207.807 119.168  1.00  0.00     0.159 HD
ATOM     23  H   UNL     1     -12.798 207.601 119.856  1.00  0.00     0.159 HD
ENDBRANCH  16  21
ENDBRANCH  10  11
ENDBRANCH   5  10
BRANCH   4  24
ATOM     24  O   UNL     1     -13.260 205.020 112.272  1.00  0.00    -0.494 OA
BRANCH  24  25
ATOM     25  C   UNL     1     -14.092 205.147 111.114  1.00  0.00     0.226 C 
ATOM     26  C   UNL     1     -15.430 205.710 111.559  1.00  0.00     0.049 C 
ENDBRANCH  24  25
ENDBRANCH   4  24
TORSDOF 8
ENDMDL
MODEL 5
REMARK minimizedAffinity -7.72666931
REMARK minimizedRMSD -1
REMARK SMILES CCOc1ccc(C(C)=O)cc1Cc1c(O)nc(N)nc1O
REMARK SMILES IDX 7 1 6 2 5 3 4 4 12 5 11 6 8 7 10 8 9 9 13 10 14 11 15 12
REMARK SMILES IDX 21 13 17 14 20 15 18 16 16 17 22 19 19 21 3 24 2 25 1 26
REMARK H PARENT 16 18 22 20 19 22 19 23
REMARK Flexibility Score: inf
ROOT
ATOM      1  C   UNL     1     -13.718 205.138 112.606  1.00  0.00     0.018 A 
ATOM      2  C   UNL     1     -12.974 205.831 111.647  1.00  0.00     0.015 A 
ATOM      3  C   UNL     1     -11.653 206.207 111.906  1.00  0.00     0.047 A 
ATOM      4  C   UNL     1     -11.052 205.890 113.128  1.00  0.00     0.122 A 
ATOM      5  C   UNL     1     -11.788 205.190 114.102  1.00  0.00    -0.000 A 
ATOM      6  C   UNL     1     -13.121 204.820 113.830  1.00  0.00     0.019 A 
ENDROOT
BRANCH   1   7
ATOM      7  C   UNL     1     -15.127 204.764 112.283  1.00  0.00     0.159 C 
ATOM      8  O   UNL     1     -15.556 203.658 112.607  1.00  0.00    -0.295 OA
ATOM      9  C   UNL     1     -16.001 205.758 111.563  1.00  0.00     0.093 C 
ENDBRANCH   1   7
BRANCH   5  10
ATOM     10  C   UNL     1     -11.193 204.834 115.451  1.00  0.00     0.086 C 
BRANCH  10  11
ATOM     11  C   UNL     1     -11.756 205.630 116.588  1.00  0.00     0.081 A 
ATOM     12  C   UNL     1     -12.785 205.217 117.404  1.00  0.00     0.223 A 
ATOM     13  C   UNL     1     -11.287 206.876 116.923  1.00  0.00     0.223 A 
ATOM     14  N   UNL     1     -13.299 205.951 118.403  1.00  0.00    -0.177 NA
ATOM     15  N   UNL     1     -11.746 207.657 117.907  1.00  0.00    -0.177 NA
ATOM     16  C   UNL     1     -12.742 207.139 118.624  1.00  0.00     0.226 A 
BRANCH  12  17
ATOM     17  O   UNL     1     -13.405 204.012 117.252  1.00  0.00    -0.493 OA
ATOM     18  H   UNL     1     -12.789 203.403 116.807  1.00  0.00     0.295 HD
ENDBRANCH  12  17
BRANCH  13  19
ATOM     19  O   UNL     1     -10.265 207.453 116.235  1.00  0.00    -0.493 OA
ATOM     20  H   UNL     1     -10.194 208.300 116.714  1.00  0.00     0.295 HD
ENDBRANCH  13  19
BRANCH  16  21
ATOM     21  N   UNL     1     -13.267 207.907 119.642  1.00  0.00    -0.368 N 
ATOM     22  H   UNL     1     -13.132 208.889 119.452  1.00  0.00     0.159 HD
ATOM     23  H   UNL     1     -14.207 207.597 119.845  1.00  0.00     0.159 HD
ENDBRANCH  16  21
ENDBRANCH  10  11
ENDBRANCH   5  10
BRANCH   4  24
ATOM     24  O   UNL     1      -9.771 206.235 113.477  1.00  0.00    -0.494 OA
BRANCH  24  25
ATOM     25  C   UNL     1      -9.206 207.384 112.837  1.00  0.00     0.226 C 
ATOM     26  C   UNL     1      -7.731 207.109 112.603  1.00  0.00     0.049 C 
ENDBRANCH  24  25
ENDBRANCH   4  24
TORSDOF 8
ENDMDL
MODEL 6
REMARK minimizedAffinity -7.72413445
REMARK minimizedRMSD -1
REMARK SMILES CCOc1ccc(C(C)=O)cc1Cc1c(O)nc(N)nc1O
REMARK SMILES IDX 7 1 6 2 5 3 4 4 12 5 11 6 8 7 10 8 9 9 13 10 14 11 15 12
REMARK SMILES IDX 21 13 17 14 20 15 18 16 16 17 22 19 19 21 3 24 2 25 1 26
REMARK H PARENT 16 18 22 20 19 22 19 23
REMARK Flexibility Score: inf
ROOT
ATOM      1  C   UNL     1     -11.181 206.908 113.446  1.00  0.00     0.018 A 
ATOM      2  C   UNL     1     -11.357 206.273 112.215  1.00  0.00     0.015 A 
ATOM      3  C   UNL     1     -12.617 205.808 111.826  1.00  0.00     0.047 A 
ATOM      4  C   UNL     1     -13.724 205.978 112.662  1.00  0.00     0.122 A 
ATOM      5  C   UNL     1     -13.563 206.620 113.905  1.00  0.00    -0.000 A 
ATOM      6  C   UNL     1     -12.286 207.079 114.286  1.00  0.00     0.019 A 
ENDROOT
BRANCH   1   7
ATOM      7  C   UNL     1      -9.814 207.381 113.818  1.00  0.00     0.159 C 
ATOM      8  O   UNL     1      -8.838 206.990 113.181  1.00  0.00    -0.295 OA
ATOM      9  C   UNL     1      -9.659 208.336 114.972  1.00  0.00     0.093 C 
ENDBRANCH   1   7
BRANCH   5  10
ATOM     10  C   UNL     1     -14.725 206.816 114.860  1.00  0.00     0.086 C 
BRANCH  10  11
ATOM     11  C   UNL     1     -14.627 205.994 116.107  1.00  0.00     0.081 A 
ATOM     12  C   UNL     1     -14.269 206.480 117.344  1.00  0.00     0.223 A 
ATOM     13  C   UNL     1     -14.889 204.646 116.127  1.00  0.00     0.223 A 
ATOM     14  N   UNL     1     -14.159 205.727 118.450  1.00  0.00    -0.177 NA
ATOM     15  N   UNL     1     -14.805 203.839 117.190  1.00  0.00    -0.177 NA
ATOM     16  C   UNL     1     -14.451 204.435 118.328  1.00  0.00     0.226 A 
BRANCH  12  17
ATOM     17  O   UNL     1     -13.963 207.792 117.558  1.00  0.00    -0.493 OA
ATOM     18  H   UNL     1     -14.402 208.326 116.873  1.00  0.00     0.295 HD
ENDBRANCH  12  17
BRANCH  13  19
ATOM     19  O   UNL     1     -15.264 203.984 115.000  1.00  0.00    -0.493 OA
ATOM     20  H   UNL     1     -15.359 203.081 115.357  1.00  0.00     0.295 HD
ENDBRANCH  13  19
BRANCH  16  21
ATOM     21  N   UNL     1     -14.333 203.648 119.454  1.00  0.00    -0.368 N 
ATOM     22  H   UNL     1     -14.118 202.695 119.202  1.00  0.00     0.159 HD
ATOM     23  H   UNL     1     -13.721 204.103 120.118  1.00  0.00     0.159 HD
ENDBRANCH  16  21
ENDBRANCH  10  11
ENDBRANCH   5  10
BRANCH   4  24
ATOM     24  O   UNL     1     -14.990 205.539 112.374  1.00  0.00    -0.494 OA
BRANCH  24  25
ATOM     25  C   UNL     1     -15.669 206.171 111.284  1.00  0.00     0.226 C 
ATOM     26  C   UNL     1     -17.062 206.548 111.757  1.00  0.00     0.049 C 
ENDBRANCH  24  25
ENDBRANCH   4  24
TORSDOF 8
ENDMDL
MODEL 7
REMARK minimizedAffinity -7.69899082
REMARK minimizedRMSD -1
REMARK SMILES CCOc1ccc(C(C)=O)cc1Cc1c(O)nc(N)nc1O
REMARK SMILES IDX 7 1 6 2 5 3 4 4 12 5 11 6 8 7 10 8 9 9 13 10 14 11 15 12
REMARK SMILES IDX 21 13 17 14 20 15 18 16 16 17 22 19 19 21 3 24 2 25 1 26
REMARK H PARENT 16 18 22 20 19 22 19 23
REMARK Flexibility Score: inf
ROOT
ATOM      1  C   UNL     1     -12.604 205.502 112.164  1.00  0.00     0.018 A 
ATOM      2  C   UNL     1     -11.874 206.377 111.355  1.00  0.00     0.015 A 
ATOM      3  C   UNL     1     -10.672 206.930 111.806  1.00  0.00     0.047 A 
ATOM      4  C   UNL     1     -10.176 206.611 113.073  1.00  0.00     0.122 A 
ATOM      5  C   UNL     1     -10.899 205.728 113.899  1.00  0.00    -0.000 A 
ATOM      6  C   UNL     1     -12.111 205.181 113.433  1.00  0.00     0.019 A 
ENDROOT
BRANCH   1   7
ATOM      7  C   UNL     1     -13.885 204.943 111.638  1.00  0.00     0.159 C 
ATOM      8  O   UNL     1     -14.425 205.463 110.664  1.00  0.00    -0.295 OA
ATOM      9  C   UNL     1     -14.491 203.743 112.317  1.00  0.00     0.093 C 
ENDBRANCH   1   7
BRANCH   5  10
ATOM     10  C   UNL     1     -10.418 205.361 115.289  1.00  0.00     0.086 C 
BRANCH  10  11
ATOM     11  C   UNL     1     -11.151 206.065 116.388  1.00  0.00     0.081 A 
ATOM     12  C   UNL     1     -10.859 207.330 116.844  1.00  0.00     0.223 A 
ATOM     13  C   UNL     1     -12.205 205.495 117.059  1.00  0.00     0.223 A 
ATOM     14  N   UNL     1     -11.507 207.941 117.849  1.00  0.00    -0.177 NA
ATOM     15  N   UNL     1     -12.898 206.046 118.061  1.00  0.00    -0.177 NA
ATOM     16  C   UNL     1     -12.516 207.276 118.406  1.00  0.00     0.226 A 
BRANCH  12  17
ATOM     17  O   UNL     1      -9.848 208.084 116.324  1.00  0.00    -0.493 OA
ATOM     18  H   UNL     1      -9.678 207.784 115.414  1.00  0.00     0.295 HD
ENDBRANCH  12  17
BRANCH  13  19
ATOM     19  O   UNL     1     -12.647 204.247 116.746  1.00  0.00    -0.493 OA
ATOM     20  H   UNL     1     -13.372 204.156 117.393  1.00  0.00     0.295 HD
ENDBRANCH  13  19
BRANCH  16  21
ATOM     21  N   UNL     1     -13.184 207.887 119.444  1.00  0.00    -0.368 N 
ATOM     22  H   UNL     1     -13.573 207.199 120.071  1.00  0.00     0.159 HD
ATOM     23  H   UNL     1     -12.594 208.603 119.847  1.00  0.00     0.159 HD
ENDBRANCH  16  21
ENDBRANCH  10  11
ENDBRANCH   5  10
BRANCH   4  24
ATOM     24  O   UNL     1      -9.020 207.119 113.606  1.00  0.00    -0.494 OA
BRANCH  24  25
ATOM     25  C   UNL     1      -8.198 207.915 112.745  1.00  0.00     0.226 C 
ATOM     26  C   UNL     1      -7.010 207.069 112.322  1.00  0.00     0.049 C 
ENDBRANCH  24  25
ENDBRANCH   4  24
TORSDOF 8
ENDMDL
MODEL 8
REMARK minimizedAffinity -7.60028839
REMARK minimizedRMSD -1
REMARK SMILES CCOc1ccc(C(C)=O)cc1Cc1c(O)nc(N)nc1O
REMARK SMILES IDX 7 1 6 2 5 3 4 4 12 5 11 6 8 7 10 8 9 9 13 10 14 11 15 12
REMARK SMILES IDX 21 13 17 14 20 15 18 16 16 17 22 19 19 21 3 24 2 25 1 26
REMARK H PARENT 16 18 22 20 19 22 19 23
REMARK Flexibility Score: inf
ROOT
ATOM      1  C   UNL     1     -12.130 206.905 116.099  1.00  0.00     0.018 A 
ATOM      2  C   UNL     1     -11.101 207.566 115.424  1.00  0.00     0.015 A 
ATOM      3  C   UNL     1     -10.882 207.340 114.062  1.00  0.00     0.047 A 
ATOM      4  C   UNL     1     -11.695 206.453 113.351  1.00  0.00     0.122 A 
ATOM      5  C   UNL     1     -12.739 205.782 114.017  1.00  0.00    -0.000 A 
ATOM      6  C   UNL     1     -12.946 206.016 115.392  1.00  0.00     0.019 A 
ENDROOT
BRANCH   1   7
ATOM      7  C   UNL     1     -12.319 207.177 117.556  1.00  0.00     0.159 C 
ATOM      8  O   UNL     1     -13.394 206.916 118.092  1.00  0.00    -0.295 OA
ATOM      9  C   UNL     1     -11.178 207.768 118.343  1.00  0.00     0.093 C 
ENDBRANCH   1   7
BRANCH   5  10
ATOM     10  C   UNL     1     -13.641 204.796 113.300  1.00  0.00     0.086 C 
BRANCH  10  11
ATOM     11  C   UNL     1     -14.913 205.400 112.792  1.00  0.00     0.081 A 
ATOM     12  C   UNL     1     -15.092 205.908 111.526  1.00  0.00     0.223 A 
ATOM     13  C   UNL     1     -16.042 205.509 113.567  1.00  0.00     0.223 A 
ATOM     14  N   UNL     1     -16.230 206.471 111.090  1.00  0.00    -0.177 NA
ATOM     15  N   UNL     1     -17.207 206.051 113.196  1.00  0.00    -0.177 NA
ATOM     16  C   UNL     1     -17.250 206.503 111.944  1.00  0.00     0.226 A 
BRANCH  12  17
ATOM     17  O   UNL     1     -14.102 205.907 110.587  1.00  0.00    -0.493 OA
ATOM     18  H   UNL     1     -13.476 205.193 110.800  1.00  0.00     0.295 HD
ENDBRANCH  12  17
BRANCH  13  19
ATOM     19  O   UNL     1     -16.063 205.056 114.849  1.00  0.00    -0.493 OA
ATOM     20  H   UNL     1     -16.978 205.286 115.095  1.00  0.00     0.295 HD
ENDBRANCH  13  19
BRANCH  16  21
ATOM     21  N   UNL     1     -18.421 207.088 111.512  1.00  0.00    -0.368 N 
ATOM     22  H   UNL     1     -18.934 207.474 112.291  1.00  0.00     0.159 HD
ATOM     23  H   UNL     1     -18.222 207.702 110.735  1.00  0.00     0.159 HD
ENDBRANCH  16  21
ENDBRANCH  10  11
ENDBRANCH   5  10
BRANCH   4  24
ATOM     24  O   UNL     1     -11.543 206.155 112.021  1.00  0.00    -0.494 OA
BRANCH  24  25
ATOM     25  C   UNL     1     -10.763 207.060 111.233  1.00  0.00     0.226 C 
ATOM     26  C   UNL     1     -10.700 206.512 109.819  1.00  0.00     0.049 C 
ENDBRANCH  24  25
ENDBRANCH   4  24
TORSDOF 8
ENDMDL
MODEL 9
REMARK minimizedAffinity -7.56805134
REMARK minimizedRMSD -1
REMARK SMILES CCOc1ccc(C(C)=O)cc1Cc1c(O)nc(N)nc1O
REMARK SMILES IDX 7 1 6 2 5 3 4 4 12 5 11 6 8 7 10 8 9 9 13 10 14 11 15 12
REMARK SMILES IDX 21 13 17 14 20 15 18 16 16 17 22 19 19 21 3 24 2 25 1 26
REMARK H PARENT 16 18 22 20 19 22 19 23
REMARK Flexibility Score: inf
ROOT
ATOM      1  C   UNL     1     -11.239 205.274 115.595  1.00  0.00     0.018 A 
ATOM      2  C   UNL     1     -10.611 206.498 115.352  1.00  0.00     0.015 A 
ATOM      3  C   UNL     1     -10.742 207.132 114.114  1.00  0.00     0.047 A 
ATOM      4  C   UNL     1     -11.510 206.555 113.099  1.00  0.00     0.122 A 
ATOM      5  C   UNL     1     -12.152 205.323 113.330  1.00  0.00    -0.000 A 
ATOM      6  C   UNL     1     -12.008 204.692 114.582  1.00  0.00     0.019 A 
ENDROOT
BRANCH   1   7
ATOM      7  C   UNL     1     -11.064 204.634 116.933  1.00  0.00     0.159 C 
ATOM      8  O   UNL     1     -11.544 203.523 117.147  1.00  0.00    -0.295 OA
ATOM      9  C   UNL     1     -10.294 205.368 117.999  1.00  0.00     0.093 C 
ENDBRANCH   1   7
BRANCH   5  10
ATOM     10  C   UNL     1     -12.984 204.642 112.260  1.00  0.00     0.086 C 
BRANCH  10  11
ATOM     11  C   UNL     1     -14.421 205.059 112.256  1.00  0.00     0.081 A 
ATOM     12  C   UNL     1     -15.383 204.578 113.114  1.00  0.00     0.223 A 
ATOM     13  C   UNL     1     -14.922 205.980 111.368  1.00  0.00     0.223 A 
ATOM     14  N   UNL     1     -16.675 204.941 113.083  1.00  0.00    -0.177 NA
ATOM     15  N   UNL     1     -16.192 206.390 111.285  1.00  0.00    -0.177 NA
ATOM     16  C   UNL     1     -17.022 205.849 112.176  1.00  0.00     0.226 A 
BRANCH  12  17
ATOM     17  O   UNL     1     -15.110 203.653 114.079  1.00  0.00    -0.493 OA
ATOM     18  H   UNL     1     -14.165 203.711 114.303  1.00  0.00     0.295 HD
ENDBRANCH  12  17
BRANCH  13  19
ATOM     19  O   UNL     1     -14.121 206.573 110.442  1.00  0.00    -0.493 OA
ATOM     20  H   UNL     1     -14.775 207.142 109.993  1.00  0.00     0.295 HD
ENDBRANCH  13  19
BRANCH  16  21
ATOM     21  N   UNL     1     -18.348 206.224 112.126  1.00  0.00    -0.368 N 
ATOM     22  H   UNL     1     -18.601 206.516 111.194  1.00  0.00     0.159 HD
ATOM     23  H   UNL     1     -18.915 205.507 112.559  1.00  0.00     0.159 HD
ENDBRANCH  16  21
ENDBRANCH  10  11
ENDBRANCH   5  10
BRANCH   4  24
ATOM     24  O   UNL     1     -11.678 207.094 111.849  1.00  0.00    -0.494 OA
BRANCH  24  25
ATOM     25  C   UNL     1     -10.496 207.369 111.091  1.00  0.00     0.226 C 
ATOM     26  C   UNL     1     -10.516 206.484 109.857  1.00  0.00     0.049 C 
ENDBRANCH  24  25
ENDBRANCH   4  24
TORSDOF 8
ENDMDL
