MODEL 1
REMARK minimizedAffinity -8.35321903
REMARK minimizedRMSD -1
REMARK SMILES COC(=O)c1ccc(NC(=O)CSc2nnc(-c3ccc(NC(C)=O)cc3)n2C)cc1
REMARK SMILES IDX 12 1 13 2 14 3 28 4 29 5 17 6 16 7 15 8 18 9 19 10 27 11
REMARK SMILES IDX 20 12 26 13 21 14 22 15 23 16 25 18 24 19 10 20 11 21 9 22
REMARK SMILES IDX 8 24 7 25 30 26 6 27 31 28 5 29 3 30 4 31 2 32 1 33
REMARK H PARENT 22 17 9 23
REMARK Flexibility Score: inf
ROOT
ATOM      1  C   UNL     1     -15.373 203.347 117.735  1.00  0.00     0.178 C 
ENDROOT
BRANCH   1   2
ATOM      2  S   UNL     1     -15.948 201.625 117.729  1.00  0.00    -0.076 SA
BRANCH   2   3
ATOM      3  C   UNL     1     -17.581 201.811 118.259  1.00  0.00     0.191 A 
ATOM      4  N   UNL     1     -17.969 201.872 119.567  1.00  0.00    -0.305 N 
ATOM      5  C   UNL     1     -17.141 201.713 120.735  1.00  0.00     0.154 C 
ATOM      6  C   UNL     1     -19.339 202.045 119.543  1.00  0.00     0.164 A 
ATOM      7  N   UNL     1     -19.730 202.063 118.277  1.00  0.00    -0.129 NA
ATOM      8  N   UNL     1     -18.630 201.919 117.477  1.00  0.00    -0.123 NA
BRANCH   6   9
ATOM      9  C   UNL     1     -20.232 202.117 120.699  1.00  0.00     0.019 A 
ATOM     10  C   UNL     1     -20.636 203.332 121.257  1.00  0.00     0.014 A 
ATOM     11  C   UNL     1     -20.701 200.930 121.272  1.00  0.00     0.014 A 
ATOM     12  C   UNL     1     -21.461 203.363 122.391  1.00  0.00     0.027 A 
ATOM     13  C   UNL     1     -21.533 200.958 122.396  1.00  0.00     0.027 A 
ATOM     14  C   UNL     1     -21.910 202.176 122.973  1.00  0.00     0.041 A 
BRANCH  14  15
ATOM     15  N   UNL     1     -22.731 202.120 124.117  1.00  0.00    -0.326 N 
ATOM     16  C   UNL     1     -24.022 201.628 124.202  1.00  0.00     0.221 C 
ATOM     17  H   UNL     1     -22.344 202.521 124.961  1.00  0.00     0.169 HD
ATOM     18  O   UNL     1     -24.706 201.191 123.281  1.00  0.00    -0.275 OA
ATOM     19  C   UNL     1     -24.580 201.724 125.602  1.00  0.00     0.114 C 
ENDBRANCH  14  15
ENDBRANCH   6   9
ENDBRANCH   2   3
ENDBRANCH   1   2
BRANCH   1  20
ATOM     20  C   UNL     1     -14.744 203.717 116.401  1.00  0.00     0.234 C 
ATOM     21  O   UNL     1     -15.241 203.327 115.347  1.00  0.00    -0.274 OA
ATOM     22  N   UNL     1     -13.612 204.506 116.526  1.00  0.00    -0.325 N 
ATOM     23  H   UNL     1     -13.238 204.610 117.470  1.00  0.00     0.169 HD
BRANCH  22  24
ATOM     24  C   UNL     1     -12.865 205.109 115.497  1.00  0.00     0.041 A 
ATOM     25  C   UNL     1     -11.624 204.644 115.061  1.00  0.00     0.027 A 
ATOM     26  C   UNL     1     -13.434 206.221 114.864  1.00  0.00     0.027 A 
ATOM     27  C   UNL     1     -10.959 205.279 114.004  1.00  0.00     0.018 A 
ATOM     28  C   UNL     1     -12.768 206.863 113.811  1.00  0.00     0.018 A 
ATOM     29  C   UNL     1     -11.527 206.393 113.374  1.00  0.00     0.060 A 
BRANCH  29  30
ATOM     30  C   UNL     1     -10.788 207.014 112.243  1.00  0.00     0.337 C 
ATOM     31  O   UNL     1     -10.164 208.059 112.338  1.00  0.00    -0.246 OA
BRANCH  30  32
ATOM     32  O   UNL     1     -10.914 206.263 111.119  1.00  0.00    -0.465 OA
ATOM     33  C   UNL     1     -11.285 207.015 109.962  1.00  0.00     0.282 C 
ENDBRANCH  30  32
ENDBRANCH  29  30
ENDBRANCH  22  24
ENDBRANCH   1  20
TORSDOF 8
ENDMDL
MODEL 2
REMARK minimizedAffinity -8.32954979
REMARK minimizedRMSD -1
REMARK SMILES COC(=O)c1ccc(NC(=O)CSc2nnc(-c3ccc(NC(C)=O)cc3)n2C)cc1
REMARK SMILES IDX 12 1 13 2 14 3 28 4 29 5 17 6 16 7 15 8 18 9 19 10 27 11
REMARK SMILES IDX 20 12 26 13 21 14 22 15 23 16 25 18 24 19 10 20 11 21 9 22
REMARK SMILES IDX 8 24 7 25 30 26 6 27 31 28 5 29 3 30 4 31 2 32 1 33
REMARK H PARENT 22 17 9 23
REMARK Flexibility Score: inf
ROOT
ATOM      1  C   UNL     1     -15.768 203.974 116.417  1.00  0.00     0.178 C 
ENDROOT
BRANCH   1   2
ATOM      2  S   UNL     1     -15.618 202.741 117.741  1.00  0.00    -0.076 SA
BRANCH   2   3
ATOM      3  C   UNL     1     -17.273 202.508 118.176  1.00  0.00     0.191 A 
ATOM      4  N   UNL     1     -17.764 202.626 119.446  1.00  0.00    -0.305 N 
ATOM      5  C   UNL     1     -17.019 202.872 120.654  1.00  0.00     0.154 C 
ATOM      6  C   UNL     1     -19.120 202.384 119.346  1.00  0.00     0.164 A 
ATOM      7  N   UNL     1     -19.399 202.120 118.079  1.00  0.00    -0.129 NA
ATOM      8  N   UNL     1     -18.244 202.199 117.350  1.00  0.00    -0.123 NA
BRANCH   6   9
ATOM      9  C   UNL     1     -20.084 202.344 120.445  1.00  0.00     0.019 A 
ATOM     10  C   UNL     1     -20.726 203.490 120.919  1.00  0.00     0.014 A 
ATOM     11  C   UNL     1     -20.378 201.116 121.049  1.00  0.00     0.014 A 
ATOM     12  C   UNL     1     -21.615 203.420 122.002  1.00  0.00     0.027 A 
ATOM     13  C   UNL     1     -21.272 201.042 122.121  1.00  0.00     0.027 A 
ATOM     14  C   UNL     1     -21.889 202.196 122.615  1.00  0.00     0.041 A 
BRANCH  14  15
ATOM     15  N   UNL     1     -22.761 202.041 123.712  1.00  0.00    -0.326 N 
ATOM     16  C   UNL     1     -24.068 201.588 123.690  1.00  0.00     0.221 C 
ATOM     17  H   UNL     1     -22.398 202.334 124.611  1.00  0.00     0.169 HD
ATOM     18  O   UNL     1     -24.724 201.280 122.700  1.00  0.00    -0.275 OA
ATOM     19  C   UNL     1     -24.682 201.547 125.069  1.00  0.00     0.114 C 
ENDBRANCH  14  15
ENDBRANCH   6   9
ENDBRANCH   2   3
ENDBRANCH   1   2
BRANCH   1  20
ATOM     20  C   UNL     1     -14.402 204.345 115.860  1.00  0.00     0.234 C 
ATOM     21  O   UNL     1     -13.376 203.967 116.420  1.00  0.00    -0.274 OA
ATOM     22  N   UNL     1     -14.468 205.113 114.709  1.00  0.00    -0.325 N 
ATOM     23  H   UNL     1     -15.390 205.476 114.461  1.00  0.00     0.169 HD
BRANCH  22  24
ATOM     24  C   UNL     1     -13.402 205.526 113.888  1.00  0.00     0.041 A 
ATOM     25  C   UNL     1     -13.120 204.969 112.640  1.00  0.00     0.027 A 
ATOM     26  C   UNL     1     -12.609 206.582 114.354  1.00  0.00     0.027 A 
ATOM     27  C   UNL     1     -12.062 205.462 111.865  1.00  0.00     0.018 A 
ATOM     28  C   UNL     1     -11.546 207.072 113.585  1.00  0.00     0.018 A 
ATOM     29  C   UNL     1     -11.268 206.515 112.334  1.00  0.00     0.060 A 
BRANCH  29  30
ATOM     30  C   UNL     1     -10.172 207.013 111.461  1.00  0.00     0.337 C 
ATOM     31  O   UNL     1     -10.083 206.745 110.273  1.00  0.00    -0.246 OA
BRANCH  30  32
ATOM     32  O   UNL     1      -9.308 207.784 112.169  1.00  0.00    -0.465 OA
ATOM     33  C   UNL     1      -7.993 207.236 112.268  1.00  0.00     0.282 C 
ENDBRANCH  30  32
ENDBRANCH  29  30
ENDBRANCH  22  24
ENDBRANCH   1  20
TORSDOF 8
ENDMDL
MODEL 3
REMARK minimizedAffinity -8.13578701
REMARK minimizedRMSD -1
REMARK SMILES COC(=O)c1ccc(NC(=O)CSc2nnc(-c3ccc(NC(C)=O)cc3)n2C)cc1
REMARK SMILES IDX 12 1 13 2 14 3 28 4 29 5 17 6 16 7 15 8 18 9 19 10 27 11
REMARK SMILES IDX 20 12 26 13 21 14 22 15 23 16 25 18 24 19 10 20 11 21 9 22
REMARK SMILES IDX 8 24 7 25 30 26 6 27 31 28 5 29 3 30 4 31 2 32 1 33
REMARK H PARENT 22 17 9 23
REMARK Flexibility Score: inf
ROOT
ATOM      1  C   UNL     1      -7.753 207.202 116.591  1.00  0.00     0.178 C 
ENDROOT
BRANCH   1   2
ATOM      2  S   UNL     1      -8.269 207.358 118.325  1.00  0.00    -0.076 SA
BRANCH   2   3
ATOM      3  C   UNL     1      -9.389 206.050 118.464  1.00  0.00     0.191 A 
ATOM      4  N   UNL     1     -10.730 206.151 118.230  1.00  0.00    -0.305 N 
ATOM      5  C   UNL     1     -11.478 207.342 117.914  1.00  0.00     0.154 C 
ATOM      6  C   UNL     1     -11.242 204.884 118.431  1.00  0.00     0.164 A 
ATOM      7  N   UNL     1     -10.243 204.089 118.785  1.00  0.00    -0.129 NA
ATOM      8  N   UNL     1      -9.087 204.819 118.804  1.00  0.00    -0.123 NA
BRANCH   6   9
ATOM      9  C   UNL     1     -12.646 204.485 118.350  1.00  0.00     0.019 A 
ATOM     10  C   UNL     1     -13.489 204.487 119.465  1.00  0.00     0.014 A 
ATOM     11  C   UNL     1     -13.171 204.085 117.117  1.00  0.00     0.014 A 
ATOM     12  C   UNL     1     -14.820 204.059 119.359  1.00  0.00     0.027 A 
ATOM     13  C   UNL     1     -14.502 203.668 117.006  1.00  0.00     0.027 A 
ATOM     14  C   UNL     1     -15.335 203.640 118.130  1.00  0.00     0.041 A 
BRANCH  14  15
ATOM     15  N   UNL     1     -16.656 203.187 117.941  1.00  0.00    -0.326 N 
ATOM     16  C   UNL     1     -17.198 201.980 118.347  1.00  0.00     0.221 C 
ATOM     17  H   UNL     1     -17.263 203.801 117.413  1.00  0.00     0.169 HD
ATOM     18  O   UNL     1     -16.610 201.062 118.909  1.00  0.00    -0.275 OA
ATOM     19  C   UNL     1     -18.656 201.854 117.975  1.00  0.00     0.114 C 
ENDBRANCH  14  15
ENDBRANCH   6   9
ENDBRANCH   2   3
ENDBRANCH   1   2
BRANCH   1  20
ATOM     20  C   UNL     1      -8.912 207.490 115.649  1.00  0.00     0.234 C 
ATOM     21  O   UNL     1      -9.347 208.633 115.526  1.00  0.00    -0.274 OA
ATOM     22  N   UNL     1      -9.377 206.365 114.989  1.00  0.00    -0.325 N 
ATOM     23  H   UNL     1      -9.016 205.468 115.319  1.00  0.00     0.169 HD
BRANCH  22  24
ATOM     24  C   UNL     1     -10.352 206.302 113.976  1.00  0.00     0.041 A 
ATOM     25  C   UNL     1     -10.179 206.827 112.695  1.00  0.00     0.027 A 
ATOM     26  C   UNL     1     -11.548 205.641 114.282  1.00  0.00     0.027 A 
ATOM     27  C   UNL     1     -11.185 206.691 111.729  1.00  0.00     0.018 A 
ATOM     28  C   UNL     1     -12.559 205.510 113.321  1.00  0.00     0.018 A 
ATOM     29  C   UNL     1     -12.381 206.033 112.038  1.00  0.00     0.060 A 
BRANCH  29  30
ATOM     30  C   UNL     1     -13.406 205.898 110.969  1.00  0.00     0.337 C 
ATOM     31  O   UNL     1     -13.303 206.416 109.867  1.00  0.00    -0.246 OA
BRANCH  30  32
ATOM     32  O   UNL     1     -14.446 205.136 111.395  1.00  0.00    -0.465 OA
ATOM     33  C   UNL     1     -15.691 205.835 111.442  1.00  0.00     0.282 C 
ENDBRANCH  30  32
ENDBRANCH  29  30
ENDBRANCH  22  24
ENDBRANCH   1  20
TORSDOF 8
ENDMDL
MODEL 4
REMARK minimizedAffinity -8.1140728
REMARK minimizedRMSD -1
REMARK SMILES COC(=O)c1ccc(NC(=O)CSc2nnc(-c3ccc(NC(C)=O)cc3)n2C)cc1
REMARK SMILES IDX 12 1 13 2 14 3 28 4 29 5 17 6 16 7 15 8 18 9 19 10 27 11
REMARK SMILES IDX 20 12 26 13 21 14 22 15 23 16 25 18 24 19 10 20 11 21 9 22
REMARK SMILES IDX 8 24 7 25 30 26 6 27 31 28 5 29 3 30 4 31 2 32 1 33
REMARK H PARENT 22 17 9 23
REMARK Flexibility Score: inf
ROOT
ATOM      1  C   UNL     1     -15.983 205.171 111.942  1.00  0.00     0.178 C 
ENDROOT
BRANCH   1   2
ATOM      2  S   UNL     1     -16.743 205.935 113.403  1.00  0.00    -0.076 SA
BRANCH   2   3
ATOM      3  C   UNL     1     -15.678 205.406 114.655  1.00  0.00     0.191 A 
ATOM      4  N   UNL     1     -15.040 206.237 115.531  1.00  0.00    -0.305 N 
ATOM      5  C   UNL     1     -15.051 207.678 115.539  1.00  0.00     0.154 C 
ATOM      6  C   UNL     1     -14.315 205.412 116.369  1.00  0.00     0.164 A 
ATOM      7  N   UNL     1     -14.510 204.160 115.983  1.00  0.00    -0.129 NA
ATOM      8  N   UNL     1     -15.363 204.159 114.913  1.00  0.00    -0.123 NA
BRANCH   6   9
ATOM      9  C   UNL     1     -13.421 205.830 117.448  1.00  0.00     0.019 A 
ATOM     10  C   UNL     1     -13.881 206.094 118.740  1.00  0.00     0.014 A 
ATOM     11  C   UNL     1     -12.054 205.971 117.184  1.00  0.00     0.014 A 
ATOM     12  C   UNL     1     -13.000 206.531 119.740  1.00  0.00     0.027 A 
ATOM     13  C   UNL     1     -11.172 206.397 118.182  1.00  0.00     0.027 A 
ATOM     14  C   UNL     1     -11.640 206.693 119.467  1.00  0.00     0.041 A 
BRANCH  14  15
ATOM     15  N   UNL     1     -10.693 207.136 120.412  1.00  0.00    -0.326 N 
ATOM     16  C   UNL     1      -9.971 206.364 121.305  1.00  0.00     0.221 C 
ATOM     17  H   UNL     1     -10.557 208.137 120.466  1.00  0.00     0.169 HD
ATOM     18  O   UNL     1     -10.060 205.151 121.469  1.00  0.00    -0.275 OA
ATOM     19  C   UNL     1      -9.039 207.194 122.155  1.00  0.00     0.114 C 
ENDBRANCH  14  15
ENDBRANCH   6   9
ENDBRANCH   2   3
ENDBRANCH   1   2
BRANCH   1  20
ATOM     20  C   UNL     1     -14.689 205.877 111.569  1.00  0.00     0.234 C 
ATOM     21  O   UNL     1     -14.661 206.682 110.642  1.00  0.00    -0.274 OA
ATOM     22  N   UNL     1     -13.616 205.515 112.367  1.00  0.00    -0.325 N 
ATOM     23  H   UNL     1     -13.765 204.717 112.988  1.00  0.00     0.169 HD
BRANCH  22  24
ATOM     24  C   UNL     1     -12.317 206.058 112.363  1.00  0.00     0.041 A 
ATOM     25  C   UNL     1     -11.506 206.126 111.230  1.00  0.00     0.027 A 
ATOM     26  C   UNL     1     -11.843 206.585 113.571  1.00  0.00     0.027 A 
ATOM     27  C   UNL     1     -10.237 206.717 111.300  1.00  0.00     0.018 A 
ATOM     28  C   UNL     1     -10.571 207.170 113.645  1.00  0.00     0.018 A 
ATOM     29  C   UNL     1      -9.762 207.240 112.508  1.00  0.00     0.060 A 
BRANCH  29  30
ATOM     30  C   UNL     1      -8.418 207.875 112.519  1.00  0.00     0.337 C 
ATOM     31  O   UNL     1      -8.167 208.912 113.112  1.00  0.00    -0.246 OA
BRANCH  30  32
ATOM     32  O   UNL     1      -7.538 207.145 111.786  1.00  0.00    -0.465 OA
ATOM     33  C   UNL     1      -6.260 206.992 112.404  1.00  0.00     0.282 C 
ENDBRANCH  30  32
ENDBRANCH  29  30
ENDBRANCH  22  24
ENDBRANCH   1  20
TORSDOF 8
ENDMDL
MODEL 5
REMARK minimizedAffinity -8.08530521
REMARK minimizedRMSD -1
REMARK SMILES COC(=O)c1ccc(NC(=O)CSc2nnc(-c3ccc(NC(C)=O)cc3)n2C)cc1
REMARK SMILES IDX 12 1 13 2 14 3 28 4 29 5 17 6 16 7 15 8 18 9 19 10 27 11
REMARK SMILES IDX 20 12 26 13 21 14 22 15 23 16 25 18 24 19 10 20 11 21 9 22
REMARK SMILES IDX 8 24 7 25 30 26 6 27 31 28 5 29 3 30 4 31 2 32 1 33
REMARK H PARENT 22 17 9 23
REMARK Flexibility Score: inf
ROOT
ATOM      1  C   UNL     1      -9.395 207.393 115.722  1.00  0.00     0.178 C 
ENDROOT
BRANCH   1   2
ATOM      2  S   UNL     1      -9.268 206.832 117.444  1.00  0.00    -0.076 SA
BRANCH   2   3
ATOM      3  C   UNL     1     -10.933 206.632 117.859  1.00  0.00     0.191 A 
ATOM      4  N   UNL     1     -11.548 205.425 118.031  1.00  0.00    -0.305 N 
ATOM      5  C   UNL     1     -10.983 204.116 117.824  1.00  0.00     0.154 C 
ATOM      6  C   UNL     1     -12.855 205.716 118.373  1.00  0.00     0.164 A 
ATOM      7  N   UNL     1     -12.994 207.033 118.381  1.00  0.00    -0.129 NA
ATOM      8  N   UNL     1     -11.792 207.603 118.061  1.00  0.00    -0.123 NA
BRANCH   6   9
ATOM      9  C   UNL     1     -13.931 204.756 118.611  1.00  0.00     0.019 A 
ATOM     10  C   UNL     1     -14.731 204.258 117.579  1.00  0.00     0.014 A 
ATOM     11  C   UNL     1     -14.175 204.316 119.917  1.00  0.00     0.014 A 
ATOM     12  C   UNL     1     -15.780 203.369 117.851  1.00  0.00     0.027 A 
ATOM     13  C   UNL     1     -15.214 203.420 120.188  1.00  0.00     0.027 A 
ATOM     14  C   UNL     1     -16.035 202.948 119.158  1.00  0.00     0.041 A 
BRANCH  14  15
ATOM     15  N   UNL     1     -17.073 202.066 119.515  1.00  0.00    -0.326 N 
ATOM     16  C   UNL     1     -18.306 202.392 120.053  1.00  0.00     0.221 C 
ATOM     17  H   UNL     1     -16.876 201.079 119.400  1.00  0.00     0.169 HD
ATOM     18  O   UNL     1     -18.702 203.511 120.360  1.00  0.00    -0.275 OA
ATOM     19  C   UNL     1     -19.165 201.173 120.295  1.00  0.00     0.114 C 
ENDBRANCH  14  15
ENDBRANCH   6   9
ENDBRANCH   2   3
ENDBRANCH   1   2
BRANCH   1  20
ATOM     20  C   UNL     1     -10.512 206.664 114.992  1.00  0.00     0.234 C 
ATOM     21  O   UNL     1     -10.366 205.499 114.631  1.00  0.00    -0.274 OA
ATOM     22  N   UNL     1     -11.645 207.439 114.806  1.00  0.00    -0.325 N 
ATOM     23  H   UNL     1     -11.552 208.434 115.021  1.00  0.00     0.169 HD
BRANCH  22  24
ATOM     24  C   UNL     1     -12.885 207.039 114.274  1.00  0.00     0.041 A 
ATOM     25  C   UNL     1     -14.101 207.176 114.944  1.00  0.00     0.027 A 
ATOM     26  C   UNL     1     -12.880 206.502 112.981  1.00  0.00     0.027 A 
ATOM     27  C   UNL     1     -15.299 206.787 114.330  1.00  0.00     0.018 A 
ATOM     28  C   UNL     1     -14.075 206.104 112.367  1.00  0.00     0.018 A 
ATOM     29  C   UNL     1     -15.292 206.247 113.039  1.00  0.00     0.060 A 
BRANCH  29  30
ATOM     30  C   UNL     1     -16.594 205.871 112.427  1.00  0.00     0.337 C 
ATOM     31  O   UNL     1     -17.195 204.843 112.699  1.00  0.00    -0.246 OA
BRANCH  30  32
ATOM     32  O   UNL     1     -16.998 206.817 111.542  1.00  0.00    -0.465 OA
ATOM     33  C   UNL     1     -18.411 207.024 111.524  1.00  0.00     0.282 C 
ENDBRANCH  30  32
ENDBRANCH  29  30
ENDBRANCH  22  24
ENDBRANCH   1  20
TORSDOF 8
ENDMDL
MODEL 6
REMARK minimizedAffinity -7.80116034
REMARK minimizedRMSD -1
REMARK SMILES COC(=O)c1ccc(NC(=O)CSc2nnc(-c3ccc(NC(C)=O)cc3)n2C)cc1
REMARK SMILES IDX 12 1 13 2 14 3 28 4 29 5 17 6 16 7 15 8 18 9 19 10 27 11
REMARK SMILES IDX 20 12 26 13 21 14 22 15 23 16 25 18 24 19 10 20 11 21 9 22
REMARK SMILES IDX 8 24 7 25 30 26 6 27 31 28 5 29 3 30 4 31 2 32 1 33
REMARK H PARENT 22 17 9 23
REMARK Flexibility Score: inf
ROOT
ATOM      1  C   UNL     1     -15.573 203.850 116.392  1.00  0.00     0.178 C 
ENDROOT
BRANCH   1   2
ATOM      2  S   UNL     1     -15.456 202.344 117.401  1.00  0.00    -0.076 SA
BRANCH   2   3
ATOM      3  C   UNL     1     -16.989 202.348 118.195  1.00  0.00     0.191 A 
ATOM      4  N   UNL     1     -17.226 202.904 119.419  1.00  0.00    -0.305 N 
ATOM      5  C   UNL     1     -16.266 203.505 120.309  1.00  0.00     0.154 C 
ATOM      6  C   UNL     1     -18.571 202.707 119.666  1.00  0.00     0.164 A 
ATOM      7  N   UNL     1     -19.086 202.048 118.639  1.00  0.00    -0.129 NA
ATOM      8  N   UNL     1     -18.096 201.826 117.720  1.00  0.00    -0.123 NA
BRANCH   6   9
ATOM      9  C   UNL     1     -19.302 203.080 120.876  1.00  0.00     0.019 A 
ATOM     10  C   UNL     1     -20.161 204.182 120.921  1.00  0.00     0.014 A 
ATOM     11  C   UNL     1     -19.140 202.312 122.034  1.00  0.00     0.014 A 
ATOM     12  C   UNL     1     -20.814 204.534 122.111  1.00  0.00     0.027 A 
ATOM     13  C   UNL     1     -19.800 202.655 123.219  1.00  0.00     0.027 A 
ATOM     14  C   UNL     1     -20.633 203.778 123.271  1.00  0.00     0.041 A 
BRANCH  14  15
ATOM     15  N   UNL     1     -21.245 204.069 124.506  1.00  0.00    -0.326 N 
ATOM     16  C   UNL     1     -21.025 205.171 125.314  1.00  0.00     0.221 C 
ATOM     17  H   UNL     1     -21.888 203.372 124.858  1.00  0.00     0.169 HD
ATOM     18  O   UNL     1     -20.219 206.076 125.121  1.00  0.00    -0.275 OA
ATOM     19  C   UNL     1     -21.875 205.145 126.562  1.00  0.00     0.114 C 
ENDBRANCH  14  15
ENDBRANCH   6   9
ENDBRANCH   2   3
ENDBRANCH   1   2
BRANCH   1  20
ATOM     20  C   UNL     1     -14.207 204.263 115.869  1.00  0.00     0.234 C 
ATOM     21  O   UNL     1     -13.183 203.920 116.455  1.00  0.00    -0.274 OA
ATOM     22  N   UNL     1     -14.268 205.025 114.714  1.00  0.00    -0.325 N 
ATOM     23  H   UNL     1     -15.195 205.358 114.442  1.00  0.00     0.169 HD
BRANCH  22  24
ATOM     24  C   UNL     1     -13.196 205.470 113.918  1.00  0.00     0.041 A 
ATOM     25  C   UNL     1     -12.877 204.932 112.670  1.00  0.00     0.027 A 
ATOM     26  C   UNL     1     -12.437 206.539 114.410  1.00  0.00     0.027 A 
ATOM     27  C   UNL     1     -11.815 205.456 111.921  1.00  0.00     0.018 A 
ATOM     28  C   UNL     1     -11.370 207.060 113.666  1.00  0.00     0.018 A 
ATOM     29  C   UNL     1     -11.055 206.522 112.416  1.00  0.00     0.060 A 
BRANCH  29  30
ATOM     30  C   UNL     1      -9.954 207.053 111.570  1.00  0.00     0.337 C 
ATOM     31  O   UNL     1      -9.842 206.811 110.378  1.00  0.00    -0.246 OA
BRANCH  30  32
ATOM     32  O   UNL     1      -9.112 207.822 112.306  1.00  0.00    -0.465 OA
ATOM     33  C   UNL     1      -7.807 207.264 112.461  1.00  0.00     0.282 C 
ENDBRANCH  30  32
ENDBRANCH  29  30
ENDBRANCH  22  24
ENDBRANCH   1  20
TORSDOF 8
ENDMDL
MODEL 7
REMARK minimizedAffinity -7.5718236
REMARK minimizedRMSD -1
REMARK SMILES COC(=O)c1ccc(NC(=O)CSc2nnc(-c3ccc(NC(C)=O)cc3)n2C)cc1
REMARK SMILES IDX 12 1 13 2 14 3 28 4 29 5 17 6 16 7 15 8 18 9 19 10 27 11
REMARK SMILES IDX 20 12 26 13 21 14 22 15 23 16 25 18 24 19 10 20 11 21 9 22
REMARK SMILES IDX 8 24 7 25 30 26 6 27 31 28 5 29 3 30 4 31 2 32 1 33
REMARK H PARENT 22 17 9 23
REMARK Flexibility Score: inf
ROOT
ATOM      1  C   UNL     1     -14.094 206.224 119.679  1.00  0.00     0.178 C 
ENDROOT
BRANCH   1   2
ATOM      2  S   UNL     1     -13.649 204.810 120.726  1.00  0.00    -0.076 SA
BRANCH   2   3
ATOM      3  C   UNL     1     -15.081 203.850 120.627  1.00  0.00     0.191 A 
ATOM      4  N   UNL     1     -16.210 204.066 121.365  1.00  0.00    -0.305 N 
ATOM      5  C   UNL     1     -16.406 205.047 122.402  1.00  0.00     0.154 C 
ATOM      6  C   UNL     1     -17.110 203.098 120.964  1.00  0.00     0.164 A 
ATOM      7  N   UNL     1     -16.521 202.342 120.049  1.00  0.00    -0.129 NA
ATOM      8  N   UNL     1     -15.255 202.815 119.839  1.00  0.00    -0.123 NA
BRANCH   6   9
ATOM      9  C   UNL     1     -18.453 202.876 121.499  1.00  0.00     0.019 A 
ATOM     10  C   UNL     1     -18.679 202.535 122.835  1.00  0.00     0.014 A 
ATOM     11  C   UNL     1     -19.555 203.010 120.648  1.00  0.00     0.014 A 
ATOM     12  C   UNL     1     -19.978 202.290 123.303  1.00  0.00     0.027 A 
ATOM     13  C   UNL     1     -20.853 202.778 121.116  1.00  0.00     0.027 A 
ATOM     14  C   UNL     1     -21.074 202.404 122.446  1.00  0.00     0.041 A 
BRANCH  14  15
ATOM     15  N   UNL     1     -22.408 202.167 122.835  1.00  0.00    -0.326 N 
ATOM     16  C   UNL     1     -23.064 200.949 122.890  1.00  0.00     0.221 C 
ATOM     17  H   UNL     1     -22.956 202.987 123.061  1.00  0.00     0.169 HD
ATOM     18  O   UNL     1     -22.614 199.855 122.565  1.00  0.00    -0.275 OA
ATOM     19  C   UNL     1     -24.490 201.090 123.367  1.00  0.00     0.114 C 
ENDBRANCH  14  15
ENDBRANCH   6   9
ENDBRANCH   2   3
ENDBRANCH   1   2
BRANCH   1  20
ATOM     20  C   UNL     1     -13.956 205.876 118.205  1.00  0.00     0.234 C 
ATOM     21  O   UNL     1     -13.154 205.021 117.838  1.00  0.00    -0.274 OA
ATOM     22  N   UNL     1     -14.805 206.603 117.387  1.00  0.00    -0.325 N 
ATOM     23  H   UNL     1     -15.294 207.386 117.826  1.00  0.00     0.169 HD
BRANCH  22  24
ATOM     24  C   UNL     1     -15.009 206.449 116.003  1.00  0.00     0.041 A 
ATOM     25  C   UNL     1     -15.959 205.591 115.447  1.00  0.00     0.027 A 
ATOM     26  C   UNL     1     -14.223 207.235 115.151  1.00  0.00     0.027 A 
ATOM     27  C   UNL     1     -16.126 205.522 114.058  1.00  0.00     0.018 A 
ATOM     28  C   UNL     1     -14.383 207.161 113.761  1.00  0.00     0.018 A 
ATOM     29  C   UNL     1     -15.338 206.305 113.207  1.00  0.00     0.060 A 
BRANCH  29  30
ATOM     30  C   UNL     1     -15.573 206.207 111.742  1.00  0.00     0.337 C 
ATOM     31  O   UNL     1     -16.575 206.633 111.189  1.00  0.00    -0.246 OA
BRANCH  30  32
ATOM     32  O   UNL     1     -14.532 205.584 111.131  1.00  0.00    -0.465 OA
ATOM     33  C   UNL     1     -13.920 206.360 110.101  1.00  0.00     0.282 C 
ENDBRANCH  30  32
ENDBRANCH  29  30
ENDBRANCH  22  24
ENDBRANCH   1  20
TORSDOF 8
ENDMDL
MODEL 8
REMARK minimizedAffinity -7.54538536
REMARK minimizedRMSD -1
REMARK SMILES COC(=O)c1ccc(NC(=O)CSc2nnc(-c3ccc(NC(C)=O)cc3)n2C)cc1
REMARK SMILES IDX 12 1 13 2 14 3 28 4 29 5 17 6 16 7 15 8 18 9 19 10 27 11
REMARK SMILES IDX 20 12 26 13 21 14 22 15 23 16 25 18 24 19 10 20 11 21 9 22
REMARK SMILES IDX 8 24 7 25 30 26 6 27 31 28 5 29 3 30 4 31 2 32 1 33
REMARK H PARENT 22 17 9 23
REMARK Flexibility Score: inf
ROOT
ATOM      1  C   UNL     1     -11.605 204.416 121.960  1.00  0.00     0.178 C 
ENDROOT
BRANCH   1   2
ATOM      2  S   UNL     1     -10.780 205.638 120.901  1.00  0.00    -0.076 SA
BRANCH   2   3
ATOM      3  C   UNL     1     -11.407 205.217 119.347  1.00  0.00     0.191 A 
ATOM      4  N   UNL     1     -12.298 205.974 118.640  1.00  0.00    -0.305 N 
ATOM      5  C   UNL     1     -12.944 207.190 119.064  1.00  0.00     0.154 C 
ATOM      6  C   UNL     1     -12.513 205.292 117.459  1.00  0.00     0.164 A 
ATOM      7  N   UNL     1     -11.793 204.180 117.487  1.00  0.00    -0.129 NA
ATOM      8  N   UNL     1     -11.102 204.137 118.668  1.00  0.00    -0.123 NA
BRANCH   6   9
ATOM      9  C   UNL     1     -13.430 205.672 116.385  1.00  0.00     0.019 A 
ATOM     10  C   UNL     1     -13.028 206.457 115.301  1.00  0.00     0.014 A 
ATOM     11  C   UNL     1     -14.758 205.236 116.437  1.00  0.00     0.014 A 
ATOM     12  C   UNL     1     -13.945 206.836 114.310  1.00  0.00     0.027 A 
ATOM     13  C   UNL     1     -15.672 205.603 115.444  1.00  0.00     0.027 A 
ATOM     14  C   UNL     1     -15.276 206.417 114.377  1.00  0.00     0.041 A 
BRANCH  14  15
ATOM     15  N   UNL     1     -16.260 206.761 113.429  1.00  0.00    -0.326 N 
ATOM     16  C   UNL     1     -16.624 206.049 112.299  1.00  0.00     0.221 C 
ATOM     17  H   UNL     1     -16.724 207.649 113.574  1.00  0.00     0.169 HD
ATOM     18  O   UNL     1     -16.120 205.008 111.892  1.00  0.00    -0.275 OA
ATOM     19  C   UNL     1     -17.730 206.728 111.528  1.00  0.00     0.114 C 
ENDBRANCH  14  15
ENDBRANCH   6   9
ENDBRANCH   2   3
ENDBRANCH   1   2
BRANCH   1  20
ATOM     20  C   UNL     1     -13.112 204.452 121.763  1.00  0.00     0.234 C 
ATOM     21  O   UNL     1     -13.755 205.459 122.050  1.00  0.00    -0.274 OA
ATOM     22  N   UNL     1     -13.628 203.275 121.247  1.00  0.00    -0.325 N 
ATOM     23  H   UNL     1     -12.988 202.479 121.213  1.00  0.00     0.169 HD
BRANCH  22  24
ATOM     24  C   UNL     1     -14.952 203.018 120.844  1.00  0.00     0.041 A 
ATOM     25  C   UNL     1     -15.991 202.725 121.727  1.00  0.00     0.027 A 
ATOM     26  C   UNL     1     -15.228 203.099 119.473  1.00  0.00     0.027 A 
ATOM     27  C   UNL     1     -17.292 202.519 121.249  1.00  0.00     0.018 A 
ATOM     28  C   UNL     1     -16.526 202.885 118.992  1.00  0.00     0.018 A 
ATOM     29  C   UNL     1     -17.566 202.596 119.879  1.00  0.00     0.060 A 
BRANCH  29  30
ATOM     30  C   UNL     1     -18.968 202.389 119.429  1.00  0.00     0.337 C 
ATOM     31  O   UNL     1     -19.314 202.424 118.258  1.00  0.00    -0.246 OA
BRANCH  30  32
ATOM     32  O   UNL     1     -19.784 202.166 120.492  1.00  0.00    -0.465 OA
ATOM     33  C   UNL     1     -20.664 203.252 120.781  1.00  0.00     0.282 C 
ENDBRANCH  30  32
ENDBRANCH  29  30
ENDBRANCH  22  24
ENDBRANCH   1  20
TORSDOF 8
ENDMDL
MODEL 9
REMARK minimizedAffinity -7.54466772
REMARK minimizedRMSD -1
REMARK SMILES COC(=O)c1ccc(NC(=O)CSc2nnc(-c3ccc(NC(C)=O)cc3)n2C)cc1
REMARK SMILES IDX 12 1 13 2 14 3 28 4 29 5 17 6 16 7 15 8 18 9 19 10 27 11
REMARK SMILES IDX 20 12 26 13 21 14 22 15 23 16 25 18 24 19 10 20 11 21 9 22
REMARK SMILES IDX 8 24 7 25 30 26 6 27 31 28 5 29 3 30 4 31 2 32 1 33
REMARK H PARENT 22 17 9 23
REMARK Flexibility Score: inf
ROOT
ATOM      1  C   UNL     1     -13.836 206.926 120.200  1.00  0.00     0.178 C 
ENDROOT
BRANCH   1   2
ATOM      2  S   UNL     1     -13.958 205.367 121.123  1.00  0.00    -0.076 SA
BRANCH   2   3
ATOM      3  C   UNL     1     -15.571 205.461 121.735  1.00  0.00     0.191 A 
ATOM      4  N   UNL     1     -16.479 204.442 121.683  1.00  0.00    -0.305 N 
ATOM      5  C   UNL     1     -16.318 203.156 121.055  1.00  0.00     0.154 C 
ATOM      6  C   UNL     1     -17.619 204.925 122.296  1.00  0.00     0.164 A 
ATOM      7  N   UNL     1     -17.388 206.175 122.668  1.00  0.00    -0.129 NA
ATOM      8  N   UNL     1     -16.107 206.507 122.318  1.00  0.00    -0.123 NA
BRANCH   6   9
ATOM      9  C   UNL     1     -18.894 204.226 122.446  1.00  0.00     0.019 A 
ATOM     10  C   UNL     1     -19.895 204.277 121.472  1.00  0.00     0.014 A 
ATOM     11  C   UNL     1     -19.128 203.478 123.605  1.00  0.00     0.014 A 
ATOM     12  C   UNL     1     -21.121 203.627 121.669  1.00  0.00     0.027 A 
ATOM     13  C   UNL     1     -20.346 202.819 123.798  1.00  0.00     0.027 A 
ATOM     14  C   UNL     1     -21.359 202.898 122.836  1.00  0.00     0.041 A 
BRANCH  14  15
ATOM     15  N   UNL     1     -22.566 202.225 123.114  1.00  0.00    -0.326 N 
ATOM     16  C   UNL     1     -22.857 200.892 122.885  1.00  0.00     0.221 C 
ATOM     17  H   UNL     1     -23.315 202.794 123.487  1.00  0.00     0.169 HD
ATOM     18  O   UNL     1     -22.128 200.060 122.354  1.00  0.00    -0.275 OA
ATOM     19  C   UNL     1     -24.255 200.528 123.325  1.00  0.00     0.114 C 
ENDBRANCH  14  15
ENDBRANCH   6   9
ENDBRANCH   2   3
ENDBRANCH   1   2
BRANCH   1  20
ATOM     20  C   UNL     1     -13.600 206.666 118.721  1.00  0.00     0.234 C 
ATOM     21  O   UNL     1     -12.549 206.161 118.335  1.00  0.00    -0.274 OA
ATOM     22  N   UNL     1     -14.664 207.047 117.919  1.00  0.00    -0.325 N 
ATOM     23  H   UNL     1     -15.397 207.595 118.373  1.00  0.00     0.169 HD
BRANCH  22  24
ATOM     24  C   UNL     1     -14.815 206.843 116.535  1.00  0.00     0.041 A 
ATOM     25  C   UNL     1     -15.387 205.700 115.974  1.00  0.00     0.027 A 
ATOM     26  C   UNL     1     -14.389 207.874 115.688  1.00  0.00     0.027 A 
ATOM     27  C   UNL     1     -15.536 205.589 114.585  1.00  0.00     0.018 A 
ATOM     28  C   UNL     1     -14.530 207.763 114.298  1.00  0.00     0.018 A 
ATOM     29  C   UNL     1     -15.107 206.619 113.740  1.00  0.00     0.060 A 
BRANCH  29  30
ATOM     30  C   UNL     1     -15.309 206.458 112.276  1.00  0.00     0.337 C 
ATOM     31  O   UNL     1     -16.166 207.055 111.643  1.00  0.00    -0.246 OA
BRANCH  30  32
ATOM     32  O   UNL     1     -14.422 205.565 111.766  1.00  0.00    -0.465 OA
ATOM     33  C   UNL     1     -13.951 205.903 110.460  1.00  0.00     0.282 C 
ENDBRANCH  30  32
ENDBRANCH  29  30
ENDBRANCH  22  24
ENDBRANCH   1  20
TORSDOF 8
ENDMDL
