MODEL 1
REMARK minimizedAffinity -7.98139191
REMARK minimizedRMSD -1
REMARK SMILES Cn1c(COc2cccc3cccnc23)nnc1SCC(N)=O
REMARK SMILES IDX 2 1 1 2 3 3 16 4 17 5 18 6 4 7 5 8 6 9 7 10 15 11 8 12 10 13
REMARK SMILES IDX 14 14 9 15 11 16 13 17 12 18 19 19 20 20 21 21 23 22 22 23
REMARK H PARENT 22 24 22 25
REMARK Flexibility Score: inf
ROOT
ATOM      1  N   UNL     1     -14.636 203.808 118.061  1.00  0.00    -0.306 N 
ATOM      2  C   UNL     1     -13.935 204.349 119.197  1.00  0.00     0.154 C 
ATOM      3  C   UNL     1     -14.281 203.940 116.733  1.00  0.00     0.171 A 
ATOM      4  N   UNL     1     -15.133 203.248 115.999  1.00  0.00    -0.131 NA
ATOM      5  N   UNL     1     -16.077 202.710 116.830  1.00  0.00    -0.123 NA
ATOM      6  C   UNL     1     -15.780 203.062 118.058  1.00  0.00     0.191 A 
ENDROOT
BRANCH   3   7
ATOM      7  C   UNL     1     -13.098 204.680 116.199  1.00  0.00     0.307 C 
BRANCH   7   8
ATOM      8  O   UNL     1     -13.554 205.883 115.568  1.00  0.00    -0.483 OA
BRANCH   8   9
ATOM      9  C   UNL     1     -13.349 205.814 114.205  1.00  0.00     0.146 A 
ATOM     10  C   UNL     1     -12.023 205.638 113.781  1.00  0.00     0.049 A 
ATOM     11  C   UNL     1     -14.413 205.978 113.305  1.00  0.00     0.112 A 
ATOM     12  C   UNL     1     -11.738 205.579 112.423  1.00  0.00     0.005 A 
ATOM     13  C   UNL     1     -14.105 205.913 111.928  1.00  0.00     0.004 A 
ATOM     14  N   UNL     1     -15.679 206.189 113.734  1.00  0.00    -0.252 NA
ATOM     15  C   UNL     1     -12.777 205.711 111.499  1.00  0.00     0.010 A 
ATOM     16  C   UNL     1     -15.154 206.061 111.006  1.00  0.00     0.012 A 
ATOM     17  C   UNL     1     -16.662 206.330 112.818  1.00  0.00     0.112 A 
ATOM     18  C   UNL     1     -16.454 206.270 111.455  1.00  0.00     0.021 A 
ENDBRANCH   8   9
ENDBRANCH   7   8
ENDBRANCH   3   7
BRANCH   6  19
ATOM     19  S   UNL     1     -16.678 202.633 119.474  1.00  0.00    -0.076 SA
BRANCH  19  20
ATOM     20  C   UNL     1     -17.854 201.426 118.788  1.00  0.00     0.177 C 
BRANCH  20  21
ATOM     21  C   UNL     1     -17.300 200.017 118.900  1.00  0.00     0.227 C 
ATOM     22  O   UNL     1     -17.482 199.289 119.873  1.00  0.00    -0.274 OA
ATOM     23  N   UNL     1     -16.554 199.580 117.838  1.00  0.00    -0.369 N 
ATOM     24  H   UNL     1     -16.015 200.287 117.336  1.00  0.00     0.159 HD
ATOM     25  H   UNL     1     -16.066 198.707 117.998  1.00  0.00     0.159 HD
ENDBRANCH  20  21
ENDBRANCH  19  20
ENDBRANCH   6  19
TORSDOF 6
ENDMDL
MODEL 2
REMARK minimizedAffinity -7.61645889
REMARK minimizedRMSD -1
REMARK SMILES Cn1c(COc2cccc3cccnc23)nnc1SCC(N)=O
REMARK SMILES IDX 2 1 1 2 3 3 16 4 17 5 18 6 4 7 5 8 6 9 7 10 15 11 8 12 10 13
REMARK SMILES IDX 14 14 9 15 11 16 13 17 12 18 19 19 20 20 21 21 23 22 22 23
REMARK H PARENT 22 24 22 25
REMARK Flexibility Score: inf
ROOT
ATOM      1  N   UNL     1     -14.436 205.275 117.596  1.00  0.00    -0.306 N 
ATOM      2  C   UNL     1     -14.651 203.937 118.087  1.00  0.00     0.154 C 
ATOM      3  C   UNL     1     -15.013 205.847 116.480  1.00  0.00     0.171 A 
ATOM      4  N   UNL     1     -14.622 207.105 116.402  1.00  0.00    -0.131 NA
ATOM      5  N   UNL     1     -13.747 207.346 117.426  1.00  0.00    -0.123 NA
ATOM      6  C   UNL     1     -13.632 206.243 118.125  1.00  0.00     0.191 A 
ENDROOT
BRANCH   3   7
ATOM      7  C   UNL     1     -15.975 205.192 115.543  1.00  0.00     0.307 C 
BRANCH   7   8
ATOM      8  O   UNL     1     -15.242 204.350 114.645  1.00  0.00    -0.483 OA
BRANCH   8   9
ATOM      9  C   UNL     1     -15.055 204.988 113.437  1.00  0.00     0.146 A 
ATOM     10  C   UNL     1     -16.209 205.243 112.679  1.00  0.00     0.049 A 
ATOM     11  C   UNL     1     -13.767 205.301 112.976  1.00  0.00     0.112 A 
ATOM     12  C   UNL     1     -16.096 205.865 111.443  1.00  0.00     0.005 A 
ATOM     13  C   UNL     1     -13.671 205.935 111.719  1.00  0.00     0.004 A 
ATOM     14  N   UNL     1     -12.663 205.009 113.704  1.00  0.00    -0.252 NA
ATOM     15  C   UNL     1     -14.830 206.215 110.966  1.00  0.00     0.010 A 
ATOM     16  C   UNL     1     -12.393 206.271 111.240  1.00  0.00     0.012 A 
ATOM     17  C   UNL     1     -11.451 205.344 113.211  1.00  0.00     0.112 A 
ATOM     18  C   UNL     1     -11.265 205.974 111.998  1.00  0.00     0.021 A 
ENDBRANCH   8   9
ENDBRANCH   7   8
ENDBRANCH   3   7
BRANCH   6  19
ATOM     19  S   UNL     1     -12.634 206.038 119.524  1.00  0.00    -0.076 SA
BRANCH  19  20
ATOM     20  C   UNL     1     -10.984 206.351 118.825  1.00  0.00     0.177 C 
BRANCH  20  21
ATOM     21  C   UNL     1     -10.560 207.787 119.077  1.00  0.00     0.227 C 
ATOM     22  O   UNL     1      -9.894 208.140 120.046  1.00  0.00    -0.274 OA
ATOM     23  N   UNL     1     -10.976 208.706 118.150  1.00  0.00    -0.369 N 
ATOM     24  H   UNL     1     -11.874 208.525 117.698  1.00  0.00     0.159 HD
ATOM     25  H   UNL     1     -10.821 209.670 118.417  1.00  0.00     0.159 HD
ENDBRANCH  20  21
ENDBRANCH  19  20
ENDBRANCH   6  19
TORSDOF 6
ENDMDL
MODEL 3
REMARK minimizedAffinity -7.5711875
REMARK minimizedRMSD -1
REMARK SMILES Cn1c(COc2cccc3cccnc23)nnc1SCC(N)=O
REMARK SMILES IDX 2 1 1 2 3 3 16 4 17 5 18 6 4 7 5 8 6 9 7 10 15 11 8 12 10 13
REMARK SMILES IDX 14 14 9 15 11 16 13 17 12 18 19 19 20 20 21 21 23 22 22 23
REMARK H PARENT 22 24 22 25
REMARK Flexibility Score: inf
ROOT
ATOM      1  N   UNL     1     -14.603 204.128 117.810  1.00  0.00    -0.306 N 
ATOM      2  C   UNL     1     -13.531 204.562 118.670  1.00  0.00     0.154 C 
ATOM      3  C   UNL     1     -14.787 204.471 116.486  1.00  0.00     0.171 A 
ATOM      4  N   UNL     1     -15.839 203.819 116.026  1.00  0.00    -0.131 NA
ATOM      5  N   UNL     1     -16.380 203.098 117.054  1.00  0.00    -0.123 NA
ATOM      6  C   UNL     1     -15.643 203.300 118.119  1.00  0.00     0.191 A 
ENDROOT
BRANCH   3   7
ATOM      7  C   UNL     1     -13.915 205.370 115.671  1.00  0.00     0.307 C 
BRANCH   7   8
ATOM      8  O   UNL     1     -13.131 204.568 114.780  1.00  0.00    -0.483 OA
BRANCH   8   9
ATOM      9  C   UNL     1     -13.326 204.974 113.475  1.00  0.00     0.146 A 
ATOM     10  C   UNL     1     -14.532 204.582 112.873  1.00  0.00     0.049 A 
ATOM     11  C   UNL     1     -12.333 205.684 112.783  1.00  0.00     0.112 A 
ATOM     12  C   UNL     1     -14.789 204.937 111.555  1.00  0.00     0.005 A 
ATOM     13  C   UNL     1     -12.613 206.038 111.445  1.00  0.00     0.004 A 
ATOM     14  N   UNL     1     -11.159 206.016 113.369  1.00  0.00    -0.252 NA
ATOM     15  C   UNL     1     -13.834 205.667 110.844  1.00  0.00     0.010 A 
ATOM     16  C   UNL     1     -11.641 206.761 110.733  1.00  0.00     0.012 A 
ATOM     17  C   UNL     1     -10.247 206.708 112.652  1.00  0.00     0.112 A 
ATOM     18  C   UNL     1     -10.440 207.104 111.345  1.00  0.00     0.021 A 
ENDBRANCH   8   9
ENDBRANCH   7   8
ENDBRANCH   3   7
BRANCH   6  19
ATOM     19  S   UNL     1     -15.920 202.608 119.681  1.00  0.00    -0.076 SA
BRANCH  19  20
ATOM     20  C   UNL     1     -17.484 201.723 119.398  1.00  0.00     0.177 C 
BRANCH  20  21
ATOM     21  C   UNL     1     -17.225 200.249 119.141  1.00  0.00     0.227 C 
ATOM     22  O   UNL     1     -17.539 199.356 119.924  1.00  0.00    -0.274 OA
ATOM     23  N   UNL     1     -16.595 199.948 117.963  1.00  0.00    -0.369 N 
ATOM     24  H   UNL     1     -15.930 200.638 117.611  1.00  0.00     0.159 HD
ATOM     25  H   UNL     1     -16.292 198.985 117.883  1.00  0.00     0.159 HD
ENDBRANCH  20  21
ENDBRANCH  19  20
ENDBRANCH   6  19
TORSDOF 6
ENDMDL
MODEL 4
REMARK minimizedAffinity -7.5529809
REMARK minimizedRMSD -1
REMARK SMILES Cn1c(COc2cccc3cccnc23)nnc1SCC(N)=O
REMARK SMILES IDX 2 1 1 2 3 3 16 4 17 5 18 6 4 7 5 8 6 9 7 10 15 11 8 12 10 13
REMARK SMILES IDX 14 14 9 15 11 16 13 17 12 18 19 19 20 20 21 21 23 22 22 23
REMARK H PARENT 22 24 22 25
REMARK Flexibility Score: inf
ROOT
ATOM      1  N   UNL     1     -14.889 203.721 118.545  1.00  0.00    -0.306 N 
ATOM      2  C   UNL     1     -13.790 204.508 119.044  1.00  0.00     0.154 C 
ATOM      3  C   UNL     1     -15.272 203.583 117.226  1.00  0.00     0.171 A 
ATOM      4  N   UNL     1     -16.276 202.727 117.168  1.00  0.00    -0.131 NA
ATOM      5  N   UNL     1     -16.591 202.348 118.443  1.00  0.00    -0.123 NA
ATOM      6  C   UNL     1     -15.767 202.957 119.260  1.00  0.00     0.191 A 
ENDROOT
BRANCH   3   7
ATOM      7  C   UNL     1     -14.630 204.229 116.042  1.00  0.00     0.307 C 
BRANCH   7   8
ATOM      8  O   UNL     1     -15.183 203.658 114.850  1.00  0.00    -0.483 OA
BRANCH   8   9
ATOM      9  C   UNL     1     -14.846 204.424 113.752  1.00  0.00     0.146 A 
ATOM     10  C   UNL     1     -13.486 204.458 113.409  1.00  0.00     0.049 A 
ATOM     11  C   UNL     1     -15.815 205.174 113.069  1.00  0.00     0.112 A 
ATOM     12  C   UNL     1     -13.069 205.224 112.327  1.00  0.00     0.005 A 
ATOM     13  C   UNL     1     -15.374 205.945 111.972  1.00  0.00     0.004 A 
ATOM     14  N   UNL     1     -17.116 205.161 113.443  1.00  0.00    -0.252 NA
ATOM     15  C   UNL     1     -14.012 205.962 111.608  1.00  0.00     0.010 A 
ATOM     16  C   UNL     1     -16.327 206.695 111.262  1.00  0.00     0.012 A 
ATOM     17  C   UNL     1     -18.004 205.897 112.739  1.00  0.00     0.112 A 
ATOM     18  C   UNL     1     -17.663 206.670 111.648  1.00  0.00     0.021 A 
ENDBRANCH   8   9
ENDBRANCH   7   8
ENDBRANCH   3   7
BRANCH   6  19
ATOM     19  S   UNL     1     -15.763 202.808 120.984  1.00  0.00    -0.076 SA
BRANCH  19  20
ATOM     20  C   UNL     1     -17.004 204.056 121.444  1.00  0.00     0.177 C 
BRANCH  20  21
ATOM     21  C   UNL     1     -18.408 203.527 121.208  1.00  0.00     0.227 C 
ATOM     22  O   UNL     1     -18.729 202.353 121.366  1.00  0.00    -0.274 OA
ATOM     23  N   UNL     1     -19.330 204.447 120.785  1.00  0.00    -0.369 N 
ATOM     24  H   UNL     1     -18.982 205.210 120.202  1.00  0.00     0.159 HD
ATOM     25  H   UNL     1     -20.212 204.050 120.483  1.00  0.00     0.159 HD
ENDBRANCH  20  21
ENDBRANCH  19  20
ENDBRANCH   6  19
TORSDOF 6
ENDMDL
MODEL 5
REMARK minimizedAffinity -7.44526339
REMARK minimizedRMSD -1
REMARK SMILES Cn1c(COc2cccc3cccnc23)nnc1SCC(N)=O
REMARK SMILES IDX 2 1 1 2 3 3 16 4 17 5 18 6 4 7 5 8 6 9 7 10 15 11 8 12 10 13
REMARK SMILES IDX 14 14 9 15 11 16 13 17 12 18 19 19 20 20 21 21 23 22 22 23
REMARK H PARENT 22 24 22 25
REMARK Flexibility Score: inf
ROOT
ATOM      1  N   UNL     1     -11.526 206.022 115.751  1.00  0.00    -0.306 N 
ATOM      2  C   UNL     1     -10.786 204.786 115.764  1.00  0.00     0.154 C 
ATOM      3  C   UNL     1     -12.886 206.167 115.566  1.00  0.00     0.171 A 
ATOM      4  N   UNL     1     -13.194 207.445 115.690  1.00  0.00    -0.131 NA
ATOM      5  N   UNL     1     -12.038 208.146 115.899  1.00  0.00    -0.123 NA
ATOM      6  C   UNL     1     -11.046 207.289 115.919  1.00  0.00     0.191 A 
ENDROOT
BRANCH   3   7
ATOM      7  C   UNL     1     -13.873 205.070 115.330  1.00  0.00     0.307 C 
BRANCH   7   8
ATOM      8  O   UNL     1     -13.514 204.378 114.129  1.00  0.00    -0.483 OA
BRANCH   8   9
ATOM      9  C   UNL     1     -14.101 204.981 113.036  1.00  0.00     0.146 A 
ATOM     10  C   UNL     1     -15.501 204.906 112.958  1.00  0.00     0.049 A 
ATOM     11  C   UNL     1     -13.322 205.577 112.033  1.00  0.00     0.112 A 
ATOM     12  C   UNL     1     -16.161 205.473 111.876  1.00  0.00     0.005 A 
ATOM     13  C   UNL     1     -14.010 206.151 110.942  1.00  0.00     0.004 A 
ATOM     14  N   UNL     1     -11.971 205.603 112.106  1.00  0.00    -0.252 NA
ATOM     15  C   UNL     1     -15.418 206.099 110.872  1.00  0.00     0.010 A 
ATOM     16  C   UNL     1     -13.253 206.766 109.930  1.00  0.00     0.012 A 
ATOM     17  C   UNL     1     -11.276 206.199 111.113  1.00  0.00     0.112 A 
ATOM     18  C   UNL     1     -11.865 206.794 110.016  1.00  0.00     0.021 A 
ENDBRANCH   8   9
ENDBRANCH   7   8
ENDBRANCH   3   7
BRANCH   6  19
ATOM     19  S   UNL     1      -9.377 207.687 116.149  1.00  0.00    -0.076 SA
BRANCH  19  20
ATOM     20  C   UNL     1      -9.066 208.736 114.696  1.00  0.00     0.177 C 
BRANCH  20  21
ATOM     21  C   UNL     1      -8.547 207.904 113.536  1.00  0.00     0.227 C 
ATOM     22  O   UNL     1      -8.547 206.677 113.525  1.00  0.00    -0.274 OA
ATOM     23  N   UNL     1      -8.051 208.607 112.470  1.00  0.00    -0.369 N 
ATOM     24  H   UNL     1      -7.604 209.501 112.680  1.00  0.00     0.159 HD
ATOM     25  H   UNL     1      -7.569 208.042 111.782  1.00  0.00     0.159 HD
ENDBRANCH  20  21
ENDBRANCH  19  20
ENDBRANCH   6  19
TORSDOF 6
ENDMDL
MODEL 6
REMARK minimizedAffinity -7.31160402
REMARK minimizedRMSD -1
REMARK SMILES Cn1c(COc2cccc3cccnc23)nnc1SCC(N)=O
REMARK SMILES IDX 2 1 1 2 3 3 16 4 17 5 18 6 4 7 5 8 6 9 7 10 15 11 8 12 10 13
REMARK SMILES IDX 14 14 9 15 11 16 13 17 12 18 19 19 20 20 21 21 23 22 22 23
REMARK H PARENT 22 24 22 25
REMARK Flexibility Score: inf
ROOT
ATOM      1  N   UNL     1     -13.070 205.841 116.306  1.00  0.00    -0.306 N 
ATOM      2  C   UNL     1     -12.967 207.092 115.598  1.00  0.00     0.154 C 
ATOM      3  C   UNL     1     -14.177 205.019 116.370  1.00  0.00     0.171 A 
ATOM      4  N   UNL     1     -13.857 203.936 117.054  1.00  0.00    -0.131 NA
ATOM      5  N   UNL     1     -12.567 204.068 117.487  1.00  0.00    -0.123 NA
ATOM      6  C   UNL     1     -12.110 205.215 117.047  1.00  0.00     0.191 A 
ENDROOT
BRANCH   3   7
ATOM      7  C   UNL     1     -15.503 205.261 115.725  1.00  0.00     0.307 C 
BRANCH   7   8
ATOM      8  O   UNL     1     -15.618 204.412 114.577  1.00  0.00    -0.483 OA
BRANCH   8   9
ATOM      9  C   UNL     1     -15.828 205.169 113.442  1.00  0.00     0.146 A 
ATOM     10  C   UNL     1     -17.144 205.602 113.215  1.00  0.00     0.049 A 
ATOM     11  C   UNL     1     -14.783 205.427 112.542  1.00  0.00     0.112 A 
ATOM     12  C   UNL     1     -17.434 206.352 112.082  1.00  0.00     0.005 A 
ATOM     13  C   UNL     1     -15.097 206.192 111.398  1.00  0.00     0.004 A 
ATOM     14  N   UNL     1     -13.529 204.965 112.759  1.00  0.00    -0.252 NA
ATOM     15  C   UNL     1     -16.412 206.650 111.178  1.00  0.00     0.010 A 
ATOM     16  C   UNL     1     -14.065 206.476 110.486  1.00  0.00     0.012 A 
ATOM     17  C   UNL     1     -12.564 205.254 111.859  1.00  0.00     0.112 A 
ATOM     18  C   UNL     1     -12.778 206.003 110.720  1.00  0.00     0.021 A 
ENDBRANCH   8   9
ENDBRANCH   7   8
ENDBRANCH   3   7
BRANCH   6  19
ATOM     19  S   UNL     1     -10.523 205.844 117.334  1.00  0.00    -0.076 SA
BRANCH  19  20
ATOM     20  C   UNL     1     -10.640 206.297 119.092  1.00  0.00     0.177 C 
BRANCH  20  21
ATOM     21  C   UNL     1     -10.431 207.790 119.276  1.00  0.00     0.227 C 
ATOM     22  O   UNL     1      -9.828 208.281 120.226  1.00  0.00    -0.274 OA
ATOM     23  N   UNL     1     -10.972 208.593 118.307  1.00  0.00    -0.369 N 
ATOM     24  H   UNL     1     -11.831 208.262 117.865  1.00  0.00     0.159 HD
ATOM     25  H   UNL     1     -10.960 209.581 118.526  1.00  0.00     0.159 HD
ENDBRANCH  20  21
ENDBRANCH  19  20
ENDBRANCH   6  19
TORSDOF 6
ENDMDL
MODEL 7
REMARK minimizedAffinity -7.29048586
REMARK minimizedRMSD -1
REMARK SMILES Cn1c(COc2cccc3cccnc23)nnc1SCC(N)=O
REMARK SMILES IDX 2 1 1 2 3 3 16 4 17 5 18 6 4 7 5 8 6 9 7 10 15 11 8 12 10 13
REMARK SMILES IDX 14 14 9 15 11 16 13 17 12 18 19 19 20 20 21 21 23 22 22 23
REMARK H PARENT 22 24 22 25
REMARK Flexibility Score: inf
ROOT
ATOM      1  N   UNL     1     -10.770 207.566 115.876  1.00  0.00    -0.306 N 
ATOM      2  C   UNL     1     -12.142 207.943 115.652  1.00  0.00     0.154 C 
ATOM      3  C   UNL     1      -9.857 207.169 114.920  1.00  0.00     0.171 A 
ATOM      4  N   UNL     1      -8.691 206.974 115.508  1.00  0.00    -0.131 NA
ATOM      5  N   UNL     1      -8.846 207.185 116.850  1.00  0.00    -0.123 NA
ATOM      6  C   UNL     1     -10.095 207.524 117.062  1.00  0.00     0.191 A 
ENDROOT
BRANCH   3   7
ATOM      7  C   UNL     1     -10.106 207.040 113.453  1.00  0.00     0.307 C 
BRANCH   7   8
ATOM      8  O   UNL     1     -10.776 205.797 113.207  1.00  0.00    -0.483 OA
BRANCH   8   9
ATOM      9  C   UNL     1     -11.707 205.948 112.199  1.00  0.00     0.146 A 
ATOM     10  C   UNL     1     -11.278 206.631 111.050  1.00  0.00     0.049 A 
ATOM     11  C   UNL     1     -13.025 205.493 112.358  1.00  0.00     0.112 A 
ATOM     12  C   UNL     1     -12.166 206.837 110.002  1.00  0.00     0.005 A 
ATOM     13  C   UNL     1     -13.912 205.710 111.282  1.00  0.00     0.004 A 
ATOM     14  N   UNL     1     -13.430 204.874 113.492  1.00  0.00    -0.252 NA
ATOM     15  C   UNL     1     -13.478 206.374 110.116  1.00  0.00     0.010 A 
ATOM     16  C   UNL     1     -15.235 205.253 111.410  1.00  0.00     0.012 A 
ATOM     17  C   UNL     1     -14.710 204.451 113.581  1.00  0.00     0.112 A 
ATOM     18  C   UNL     1     -15.641 204.611 112.576  1.00  0.00     0.021 A 
ENDBRANCH   8   9
ENDBRANCH   7   8
ENDBRANCH   3   7
BRANCH   6  19
ATOM     19  S   UNL     1     -10.791 207.891 118.604  1.00  0.00    -0.076 SA
BRANCH  19  20
ATOM     20  C   UNL     1     -11.872 206.449 118.850  1.00  0.00     0.177 C 
BRANCH  20  21
ATOM     21  C   UNL     1     -13.327 206.878 118.924  1.00  0.00     0.227 C 
ATOM     22  O   UNL     1     -14.231 206.330 118.301  1.00  0.00    -0.274 OA
ATOM     23  N   UNL     1     -13.595 207.948 119.736  1.00  0.00    -0.369 N 
ATOM     24  H   UNL     1     -12.863 208.656 119.816  1.00  0.00     0.159 HD
ATOM     25  H   UNL     1     -14.534 208.315 119.650  1.00  0.00     0.159 HD
ENDBRANCH  20  21
ENDBRANCH  19  20
ENDBRANCH   6  19
TORSDOF 6
ENDMDL
MODEL 8
REMARK minimizedAffinity -7.15568066
REMARK minimizedRMSD -1
REMARK SMILES Cn1c(COc2cccc3cccnc23)nnc1SCC(N)=O
REMARK SMILES IDX 2 1 1 2 3 3 16 4 17 5 18 6 4 7 5 8 6 9 7 10 15 11 8 12 10 13
REMARK SMILES IDX 14 14 9 15 11 16 13 17 12 18 19 19 20 20 21 21 23 22 22 23
REMARK H PARENT 22 24 22 25
REMARK Flexibility Score: inf
ROOT
ATOM      1  N   UNL     1     -14.443 204.112 117.720  1.00  0.00    -0.306 N 
ATOM      2  C   UNL     1     -13.473 204.861 118.478  1.00  0.00     0.154 C 
ATOM      3  C   UNL     1     -14.543 204.045 116.345  1.00  0.00     0.171 A 
ATOM      4  N   UNL     1     -15.512 203.204 116.034  1.00  0.00    -0.131 NA
ATOM      5  N   UNL     1     -16.085 202.762 117.194  1.00  0.00    -0.123 NA
ATOM      6  C   UNL     1     -15.450 203.321 118.195  1.00  0.00     0.191 A 
ENDROOT
BRANCH   3   7
ATOM      7  C   UNL     1     -13.670 204.746 115.356  1.00  0.00     0.307 C 
BRANCH   7   8
ATOM      8  O   UNL     1     -14.211 206.048 115.103  1.00  0.00    -0.483 OA
BRANCH   8   9
ATOM      9  C   UNL     1     -14.830 206.077 113.870  1.00  0.00     0.146 A 
ATOM     10  C   UNL     1     -16.225 205.918 113.868  1.00  0.00     0.049 A 
ATOM     11  C   UNL     1     -14.084 206.195 112.689  1.00  0.00     0.112 A 
ATOM     12  C   UNL     1     -16.915 205.917 112.663  1.00  0.00     0.005 A 
ATOM     13  C   UNL     1     -14.801 206.195 111.473  1.00  0.00     0.004 A 
ATOM     14  N   UNL     1     -12.734 206.306 112.711  1.00  0.00    -0.252 NA
ATOM     15  C   UNL     1     -16.205 206.060 111.468  1.00  0.00     0.010 A 
ATOM     16  C   UNL     1     -14.078 206.325 110.275  1.00  0.00     0.012 A 
ATOM     17  C   UNL     1     -12.072 206.426 111.539  1.00  0.00     0.112 A 
ATOM     18  C   UNL     1     -12.692 206.445 110.307  1.00  0.00     0.021 A 
ENDBRANCH   8   9
ENDBRANCH   7   8
ENDBRANCH   3   7
BRANCH   6  19
ATOM     19  S   UNL     1     -15.805 203.082 119.872  1.00  0.00    -0.076 SA
BRANCH  19  20
ATOM     20  C   UNL     1     -17.012 201.724 119.783  1.00  0.00     0.177 C 
BRANCH  20  21
ATOM     21  C   UNL     1     -18.417 202.239 120.041  1.00  0.00     0.227 C 
ATOM     22  O   UNL     1     -19.405 201.514 120.114  1.00  0.00    -0.274 OA
ATOM     23  N   UNL     1     -18.540 203.595 120.184  1.00  0.00    -0.369 N 
ATOM     24  H   UNL     1     -17.890 204.172 119.648  1.00  0.00     0.159 HD
ATOM     25  H   UNL     1     -19.496 203.931 120.197  1.00  0.00     0.159 HD
ENDBRANCH  20  21
ENDBRANCH  19  20
ENDBRANCH   6  19
TORSDOF 6
ENDMDL
MODEL 9
REMARK minimizedAffinity -7.11810398
REMARK minimizedRMSD -1
REMARK SMILES Cn1c(COc2cccc3cccnc23)nnc1SCC(N)=O
REMARK SMILES IDX 2 1 1 2 3 3 16 4 17 5 18 6 4 7 5 8 6 9 7 10 15 11 8 12 10 13
REMARK SMILES IDX 14 14 9 15 11 16 13 17 12 18 19 19 20 20 21 21 23 22 22 23
REMARK H PARENT 22 24 22 25
REMARK Flexibility Score: inf
ROOT
ATOM      1  N   UNL     1     -12.703 204.986 117.494  1.00  0.00    -0.306 N 
ATOM      2  C   UNL     1     -11.829 203.850 117.344  1.00  0.00     0.154 C 
ATOM      3  C   UNL     1     -12.689 206.143 116.742  1.00  0.00     0.171 A 
ATOM      4  N   UNL     1     -13.685 206.914 117.138  1.00  0.00    -0.131 NA
ATOM      5  N   UNL     1     -14.317 206.296 118.182  1.00  0.00    -0.123 NA
ATOM      6  C   UNL     1     -13.714 205.152 118.397  1.00  0.00     0.191 A 
ENDROOT
BRANCH   3   7
ATOM      7  C   UNL     1     -11.757 206.461 115.619  1.00  0.00     0.307 C 
BRANCH   7   8
ATOM      8  O   UNL     1     -12.387 207.412 114.752  1.00  0.00    -0.483 OA
BRANCH   8   9
ATOM      9  C   UNL     1     -12.590 206.860 113.504  1.00  0.00     0.146 A 
ATOM     10  C   UNL     1     -11.452 206.714 112.694  1.00  0.00     0.049 A 
ATOM     11  C   UNL     1     -13.878 206.530 113.060  1.00  0.00     0.112 A 
ATOM     12  C   UNL     1     -11.582 206.184 111.417  1.00  0.00     0.005 A 
ATOM     13  C   UNL     1     -13.991 205.990 111.760  1.00  0.00     0.004 A 
ATOM     14  N   UNL     1     -14.968 206.718 113.841  1.00  0.00    -0.252 NA
ATOM     15  C   UNL     1     -12.847 205.819 110.953  1.00  0.00     0.010 A 
ATOM     16  C   UNL     1     -15.270 205.638 111.296  1.00  0.00     0.012 A 
ATOM     17  C   UNL     1     -16.182 206.371 113.360  1.00  0.00     0.112 A 
ATOM     18  C   UNL     1     -16.383 205.828 112.108  1.00  0.00     0.021 A 
ENDBRANCH   8   9
ENDBRANCH   7   8
ENDBRANCH   3   7
BRANCH   6  19
ATOM     19  S   UNL     1     -14.140 204.004 119.620  1.00  0.00    -0.076 SA
BRANCH  19  20
ATOM     20  C   UNL     1     -15.624 203.249 118.887  1.00  0.00     0.177 C 
BRANCH  20  21
ATOM     21  C   UNL     1     -15.283 202.560 117.578  1.00  0.00     0.227 C 
ATOM     22  O   UNL     1     -15.632 202.978 116.478  1.00  0.00    -0.274 OA
ATOM     23  N   UNL     1     -14.553 201.406 117.681  1.00  0.00    -0.369 N 
ATOM     24  H   UNL     1     -14.711 200.838 118.515  1.00  0.00     0.159 HD
ATOM     25  H   UNL     1     -14.472 200.882 116.818  1.00  0.00     0.159 HD
ENDBRANCH  20  21
ENDBRANCH  19  20
ENDBRANCH   6  19
TORSDOF 6
ENDMDL
