MODEL 1
REMARK minimizedAffinity -9.12584782
REMARK minimizedRMSD -1
REMARK SMILES CN1CCN(C(=O)CN(c2cc(C(F)(F)F)ccc2Cl)S(=O)(=O)c2ccccc2)CC1
REMARK SMILES IDX 9 1 10 2 12 3 11 4 17 5 18 6 19 7 20 8 13 9 14 10 15 11
REMARK SMILES IDX 16 12 8 13 6 14 7 15 5 16 4 17 30 18 3 19 31 20 2 21 1 22
REMARK SMILES IDX 21 23 22 24 23 25 24 26 25 27 29 28 26 29 28 30 27 31
REMARK H PARENT
REMARK Flexibility Score: inf
ROOT
ATOM      1  N   UNL     1     -13.936 205.521 116.088  1.00  0.00    -0.255 N 
ENDROOT
BRANCH   1   2
ATOM      2  C   UNL     1     -12.809 206.394 115.917  1.00  0.00     0.072 A 
ATOM      3  C   UNL     1     -10.953 207.047 114.464  1.00  0.00     0.058 A 
ATOM      4  C   UNL     1     -12.094 206.268 114.718  1.00  0.00     0.041 A 
ATOM      5  C   UNL     1     -10.538 207.970 115.433  1.00  0.00     0.015 A 
ATOM      6  C   UNL     1     -11.241 208.102 116.633  1.00  0.00     0.023 A 
ATOM      7  C   UNL     1     -12.372 207.319 116.880  1.00  0.00     0.065 A 
ATOM      8  Cl  UNL     1     -13.181 207.556 118.389  1.00  0.00    -0.082 Cl
BRANCH   3   9
ATOM      9  C   UNL     1     -10.217 206.905 113.152  1.00  0.00     0.416 C 
ATOM     10  F   UNL     1      -8.926 206.504 113.307  1.00  0.00    -0.166 F 
ATOM     11  F   UNL     1     -10.804 205.994 112.329  1.00  0.00    -0.166 F 
ATOM     12  F   UNL     1     -10.163 208.067 112.444  1.00  0.00    -0.166 F 
ENDBRANCH   3   9
ENDBRANCH   1   2
BRANCH   1  13
ATOM     13  C   UNL     1     -13.721 204.116 116.490  1.00  0.00     0.235 C 
BRANCH  13  14
ATOM     14  C   UNL     1     -14.059 203.945 117.974  1.00  0.00     0.243 C 
ATOM     15  O   UNL     1     -13.418 204.550 118.840  1.00  0.00    -0.273 OA
ATOM     16  N   UNL     1     -15.079 203.068 118.308  1.00  0.00    -0.339 N 
ATOM     17  C   UNL     1     -15.537 203.010 119.698  1.00  0.00     0.135 C 
ATOM     18  C   UNL     1     -15.803 202.215 117.361  1.00  0.00     0.135 C 
ATOM     19  C   UNL     1     -17.047 202.724 119.796  1.00  0.00     0.105 C 
ATOM     20  C   UNL     1     -16.538 201.060 118.064  1.00  0.00     0.105 C 
ATOM     21  N   UNL     1     -17.510 201.520 119.071  1.00  0.00    -0.303 NA
ATOM     22  C   UNL     1     -17.865 200.438 119.986  1.00  0.00     0.105 C 
ENDBRANCH  13  14
ENDBRANCH   1  13
BRANCH   1  23
ATOM     23  S   UNL     1     -15.389 205.900 115.302  1.00  0.00     0.264 S 
ATOM     24  O   UNL     1     -15.634 207.325 115.408  1.00  0.00    -0.201 OA
ATOM     25  O   UNL     1     -16.398 204.940 115.702  1.00  0.00    -0.201 OA
BRANCH  23  26
ATOM     26  C   UNL     1     -15.029 205.570 113.586  1.00  0.00     0.088 A 
ATOM     27  C   UNL     1     -14.585 204.299 113.207  1.00  0.00     0.022 A 
ATOM     28  C   UNL     1     -15.125 206.602 112.647  1.00  0.00     0.022 A 
ATOM     29  C   UNL     1     -14.279 204.049 111.869  1.00  0.00     0.001 A 
ATOM     30  C   UNL     1     -14.816 206.344 111.311  1.00  0.00     0.001 A 
ATOM     31  C   UNL     1     -14.399 205.068 110.923  1.00  0.00     0.000 A 
ENDBRANCH  23  26
ENDBRANCH   1  23
TORSDOF 6
ENDMDL
MODEL 2
REMARK minimizedAffinity -8.95403576
REMARK minimizedRMSD -1
REMARK SMILES CN1CCN(C(=O)CN(c2cc(C(F)(F)F)ccc2Cl)S(=O)(=O)c2ccccc2)CC1
REMARK SMILES IDX 9 1 10 2 12 3 11 4 17 5 18 6 19 7 20 8 13 9 14 10 15 11
REMARK SMILES IDX 16 12 8 13 6 14 7 15 5 16 4 17 30 18 3 19 31 20 2 21 1 22
REMARK SMILES IDX 21 23 22 24 23 25 24 26 25 27 29 28 26 29 28 30 27 31
REMARK H PARENT
REMARK Flexibility Score: inf
ROOT
ATOM      1  N   UNL     1     -12.940 206.425 115.440  1.00  0.00    -0.255 N 
ENDROOT
BRANCH   1   2
ATOM      2  C   UNL     1     -11.787 206.982 114.792  1.00  0.00     0.072 A 
ATOM      3  C   UNL     1     -10.544 207.193 112.695  1.00  0.00     0.058 A 
ATOM      4  C   UNL     1     -11.652 206.726 113.420  1.00  0.00     0.041 A 
ATOM      5  C   UNL     1      -9.564 207.935 113.368  1.00  0.00     0.015 A 
ATOM      6  C   UNL     1      -9.685 208.195 114.735  1.00  0.00     0.023 A 
ATOM      7  C   UNL     1     -10.789 207.722 115.449  1.00  0.00     0.065 A 
ATOM      8  Cl  UNL     1     -10.857 208.097 117.135  1.00  0.00    -0.082 Cl
BRANCH   3   9
ATOM      9  C   UNL     1     -10.439 206.919 111.213  1.00  0.00     0.416 C 
ATOM     10  F   UNL     1     -11.070 205.775 110.837  1.00  0.00    -0.166 F 
ATOM     11  F   UNL     1     -10.983 207.919 110.466  1.00  0.00    -0.166 F 
ATOM     12  F   UNL     1      -9.152 206.792 110.786  1.00  0.00    -0.166 F 
ENDBRANCH   3   9
ENDBRANCH   1   2
BRANCH   1  13
ATOM     13  C   UNL     1     -13.032 204.965 115.643  1.00  0.00     0.235 C 
BRANCH  13  14
ATOM     14  C   UNL     1     -11.844 204.484 116.482  1.00  0.00     0.243 C 
ATOM     15  O   UNL     1     -10.859 203.969 115.941  1.00  0.00    -0.273 OA
ATOM     16  N   UNL     1     -11.929 204.613 117.859  1.00  0.00    -0.339 N 
ATOM     17  C   UNL     1     -10.747 204.319 118.673  1.00  0.00     0.135 C 
ATOM     18  C   UNL     1     -13.106 205.090 118.591  1.00  0.00     0.135 C 
ATOM     19  C   UNL     1     -10.664 205.223 119.918  1.00  0.00     0.105 C 
ATOM     20  C   UNL     1     -13.058 204.706 120.081  1.00  0.00     0.105 C 
ATOM     21  N   UNL     1     -11.869 205.227 120.776  1.00  0.00    -0.303 NA
ATOM     22  C   UNL     1     -11.644 204.514 122.031  1.00  0.00     0.105 C 
ENDBRANCH  13  14
ENDBRANCH   1  13
BRANCH   1  23
ATOM     23  S   UNL     1     -14.384 207.313 115.443  1.00  0.00     0.264 S 
ATOM     24  O   UNL     1     -14.091 208.706 115.173  1.00  0.00    -0.201 OA
ATOM     25  O   UNL     1     -15.163 206.928 116.602  1.00  0.00    -0.201 OA
BRANCH  23  26
ATOM     26  C   UNL     1     -15.255 206.687 114.017  1.00  0.00     0.088 A 
ATOM     27  C   UNL     1     -14.844 207.068 112.736  1.00  0.00     0.022 A 
ATOM     28  C   UNL     1     -16.384 205.881 114.194  1.00  0.00     0.022 A 
ATOM     29  C   UNL     1     -15.542 206.600 111.623  1.00  0.00     0.001 A 
ATOM     30  C   UNL     1     -17.077 205.417 113.076  1.00  0.00     0.001 A 
ATOM     31  C   UNL     1     -16.653 205.772 111.793  1.00  0.00     0.000 A 
ENDBRANCH  23  26
ENDBRANCH   1  23
TORSDOF 6
ENDMDL
MODEL 3
REMARK minimizedAffinity -8.56785679
REMARK minimizedRMSD -1
REMARK SMILES CN1CCN(C(=O)CN(c2cc(C(F)(F)F)ccc2Cl)S(=O)(=O)c2ccccc2)CC1
REMARK SMILES IDX 9 1 10 2 12 3 11 4 17 5 18 6 19 7 20 8 13 9 14 10 15 11
REMARK SMILES IDX 16 12 8 13 6 14 7 15 5 16 4 17 30 18 3 19 31 20 2 21 1 22
REMARK SMILES IDX 21 23 22 24 23 25 24 26 25 27 29 28 26 29 28 30 27 31
REMARK H PARENT
REMARK Flexibility Score: inf
ROOT
ATOM      1  N   UNL     1     -13.011 206.011 115.005  1.00  0.00    -0.255 N 
ENDROOT
BRANCH   1   2
ATOM      2  C   UNL     1     -12.144 206.241 113.885  1.00  0.00     0.072 A 
ATOM      3  C   UNL     1     -10.257 207.532 113.014  1.00  0.00     0.058 A 
ATOM      4  C   UNL     1     -11.138 207.203 114.057  1.00  0.00     0.041 A 
ATOM      5  C   UNL     1     -10.392 206.872 111.786  1.00  0.00     0.015 A 
ATOM      6  C   UNL     1     -11.391 205.914 111.601  1.00  0.00     0.023 A 
ATOM      7  C   UNL     1     -12.267 205.597 112.643  1.00  0.00     0.065 A 
ATOM      8  Cl  UNL     1     -13.469 204.396 112.325  1.00  0.00    -0.082 Cl
BRANCH   3   9
ATOM      9  C   UNL     1      -9.169 208.556 113.238  1.00  0.00     0.416 C 
ATOM     10  F   UNL     1      -9.226 209.593 112.360  1.00  0.00    -0.166 F 
ATOM     11  F   UNL     1      -9.226 209.105 114.482  1.00  0.00    -0.166 F 
ATOM     12  F   UNL     1      -7.916 208.035 113.118  1.00  0.00    -0.166 F 
ENDBRANCH   3   9
ENDBRANCH   1   2
BRANCH   1  13
ATOM     13  C   UNL     1     -13.074 204.670 115.621  1.00  0.00     0.235 C 
BRANCH  13  14
ATOM     14  C   UNL     1     -11.796 204.410 116.425  1.00  0.00     0.243 C 
ATOM     15  O   UNL     1     -10.778 203.983 115.869  1.00  0.00    -0.273 OA
ATOM     16  N   UNL     1     -11.834 204.636 117.792  1.00  0.00    -0.339 N 
ATOM     17  C   UNL     1     -10.588 204.559 118.558  1.00  0.00     0.135 C 
ATOM     18  C   UNL     1     -13.029 205.016 118.552  1.00  0.00     0.135 C 
ATOM     19  C   UNL     1     -10.567 205.561 119.728  1.00  0.00     0.105 C 
ATOM     20  C   UNL     1     -12.864 204.760 120.060  1.00  0.00     0.105 C 
ATOM     21  N   UNL     1     -11.722 205.481 120.649  1.00  0.00    -0.303 NA
ATOM     22  C   UNL     1     -11.349 204.903 121.938  1.00  0.00     0.105 C 
ENDBRANCH  13  14
ENDBRANCH   1  13
BRANCH   1  23
ATOM     23  S   UNL     1     -14.332 207.048 115.242  1.00  0.00     0.264 S 
ATOM     24  O   UNL     1     -13.909 208.418 115.032  1.00  0.00    -0.201 OA
ATOM     25  O   UNL     1     -15.016 206.658 116.458  1.00  0.00    -0.201 OA
BRANCH  23  26
ATOM     26  C   UNL     1     -15.425 206.638 113.893  1.00  0.00     0.088 A 
ATOM     27  C   UNL     1     -15.266 207.275 112.658  1.00  0.00     0.022 A 
ATOM     28  C   UNL     1     -16.475 205.738 114.101  1.00  0.00     0.022 A 
ATOM     29  C   UNL     1     -16.138 206.972 111.612  1.00  0.00     0.001 A 
ATOM     30  C   UNL     1     -17.343 205.441 113.050  1.00  0.00     0.001 A 
ATOM     31  C   UNL     1     -17.170 206.054 111.807  1.00  0.00     0.000 A 
ENDBRANCH  23  26
ENDBRANCH   1  23
TORSDOF 6
ENDMDL
MODEL 4
REMARK minimizedAffinity -8.44594479
REMARK minimizedRMSD -1
REMARK SMILES CN1CCN(C(=O)CN(c2cc(C(F)(F)F)ccc2Cl)S(=O)(=O)c2ccccc2)CC1
REMARK SMILES IDX 9 1 10 2 12 3 11 4 17 5 18 6 19 7 20 8 13 9 14 10 15 11
REMARK SMILES IDX 16 12 8 13 6 14 7 15 5 16 4 17 30 18 3 19 31 20 2 21 1 22
REMARK SMILES IDX 21 23 22 24 23 25 24 26 25 27 29 28 26 29 28 30 27 31
REMARK H PARENT
REMARK Flexibility Score: inf
ROOT
ATOM      1  N   UNL     1     -12.872 206.173 115.939  1.00  0.00    -0.255 N 
ENDROOT
BRANCH   1   2
ATOM      2  C   UNL     1     -11.778 206.891 115.350  1.00  0.00     0.072 A 
ATOM      3  C   UNL     1     -10.482 207.298 113.316  1.00  0.00     0.058 A 
ATOM      4  C   UNL     1     -11.548 206.674 113.984  1.00  0.00     0.041 A 
ATOM      5  C   UNL     1      -9.644 208.157 114.039  1.00  0.00     0.015 A 
ATOM      6  C   UNL     1      -9.860 208.378 115.401  1.00  0.00     0.023 A 
ATOM      7  C   UNL     1     -10.921 207.749 116.059  1.00  0.00     0.065 A 
ATOM      8  Cl  UNL     1     -11.115 208.088 117.743  1.00  0.00    -0.082 Cl
BRANCH   3   9
ATOM      9  C   UNL     1     -10.274 207.062 111.838  1.00  0.00     0.416 C 
ATOM     10  F   UNL     1      -8.967 206.879 111.506  1.00  0.00    -0.166 F 
ATOM     11  F   UNL     1     -10.938 205.960 111.394  1.00  0.00    -0.166 F 
ATOM     12  F   UNL     1     -10.712 208.097 111.068  1.00  0.00    -0.166 F 
ENDBRANCH   3   9
ENDBRANCH   1   2
BRANCH   1  13
ATOM     13  C   UNL     1     -12.637 204.847 116.545  1.00  0.00     0.235 C 
BRANCH  13  14
ATOM     14  C   UNL     1     -12.613 204.973 118.072  1.00  0.00     0.243 C 
ATOM     15  O   UNL     1     -13.649 205.211 118.701  1.00  0.00    -0.273 OA
ATOM     16  N   UNL     1     -11.390 204.846 118.712  1.00  0.00    -0.339 N 
ATOM     17  C   UNL     1     -11.359 204.794 120.176  1.00  0.00     0.135 C 
ATOM     18  C   UNL     1     -10.097 204.694 118.040  1.00  0.00     0.135 C 
ATOM     19  C   UNL     1     -10.234 203.879 120.696  1.00  0.00     0.105 C 
ATOM     20  C   UNL     1      -8.916 205.023 118.970  1.00  0.00     0.105 C 
ATOM     21  N   UNL     1      -8.881 204.186 120.182  1.00  0.00    -0.303 NA
ATOM     22  C   UNL     1      -8.034 204.789 121.207  1.00  0.00     0.105 C 
ENDBRANCH  13  14
ENDBRANCH   1  13
BRANCH   1  23
ATOM     23  S   UNL     1     -14.451 206.545 115.449  1.00  0.00     0.264 S 
ATOM     24  O   UNL     1     -14.596 207.983 115.348  1.00  0.00    -0.201 OA
ATOM     25  O   UNL     1     -15.379 205.757 116.235  1.00  0.00    -0.201 OA
BRANCH  23  26
ATOM     26  C   UNL     1     -14.528 205.905 113.785  1.00  0.00     0.088 A 
ATOM     27  C   UNL     1     -14.833 206.767 112.727  1.00  0.00     0.022 A 
ATOM     28  C   UNL     1     -14.355 204.535 113.561  1.00  0.00     0.022 A 
ATOM     29  C   UNL     1     -14.918 206.261 111.431  1.00  0.00     0.001 A 
ATOM     30  C   UNL     1     -14.442 204.036 112.262  1.00  0.00     0.001 A 
ATOM     31  C   UNL     1     -14.719 204.900 111.198  1.00  0.00     0.000 A 
ENDBRANCH  23  26
ENDBRANCH   1  23
TORSDOF 6
ENDMDL
MODEL 5
REMARK minimizedAffinity -8.43542862
REMARK minimizedRMSD -1
REMARK SMILES CN1CCN(C(=O)CN(c2cc(C(F)(F)F)ccc2Cl)S(=O)(=O)c2ccccc2)CC1
REMARK SMILES IDX 9 1 10 2 12 3 11 4 17 5 18 6 19 7 20 8 13 9 14 10 15 11
REMARK SMILES IDX 16 12 8 13 6 14 7 15 5 16 4 17 30 18 3 19 31 20 2 21 1 22
REMARK SMILES IDX 21 23 22 24 23 25 24 26 25 27 29 28 26 29 28 30 27 31
REMARK H PARENT
REMARK Flexibility Score: inf
ROOT
ATOM      1  N   UNL     1     -13.647 204.330 117.212  1.00  0.00    -0.255 N 
ENDROOT
BRANCH   1   2
ATOM      2  C   UNL     1     -14.271 205.124 116.193  1.00  0.00     0.072 A 
ATOM      3  C   UNL     1     -15.125 205.173 113.901  1.00  0.00     0.058 A 
ATOM      4  C   UNL     1     -14.548 204.481 114.978  1.00  0.00     0.041 A 
ATOM      5  C   UNL     1     -15.432 206.531 114.060  1.00  0.00     0.015 A 
ATOM      6  C   UNL     1     -15.158 207.184 115.264  1.00  0.00     0.023 A 
ATOM      7  C   UNL     1     -14.579 206.488 116.329  1.00  0.00     0.065 A 
ATOM      8  Cl  UNL     1     -14.282 207.376 117.782  1.00  0.00    -0.082 Cl
BRANCH   3   9
ATOM      9  C   UNL     1     -15.432 204.447 112.612  1.00  0.00     0.416 C 
ATOM     10  F   UNL     1     -16.699 204.663 112.168  1.00  0.00    -0.166 F 
ATOM     11  F   UNL     1     -14.603 204.821 111.600  1.00  0.00    -0.166 F 
ATOM     12  F   UNL     1     -15.302 203.095 112.720  1.00  0.00    -0.166 F 
ENDBRANCH   3   9
ENDBRANCH   1   2
BRANCH   1  13
ATOM     13  C   UNL     1     -14.424 203.915 118.397  1.00  0.00     0.235 C 
BRANCH  13  14
ATOM     14  C   UNL     1     -15.267 202.682 118.056  1.00  0.00     0.243 C 
ATOM     15  O   UNL     1     -14.962 201.953 117.107  1.00  0.00    -0.273 OA
ATOM     16  N   UNL     1     -16.395 202.437 118.824  1.00  0.00    -0.339 N 
ATOM     17  C   UNL     1     -17.124 201.181 118.632  1.00  0.00     0.135 C 
ATOM     18  C   UNL     1     -16.904 203.315 119.881  1.00  0.00     0.135 C 
ATOM     19  C   UNL     1     -17.733 200.661 119.948  1.00  0.00     0.105 C 
ATOM     20  C   UNL     1     -18.372 203.014 120.230  1.00  0.00     0.105 C 
ATOM     21  N   UNL     1     -18.590 201.626 120.671  1.00  0.00    -0.303 NA
ATOM     22  C   UNL     1     -20.003 201.268 120.586  1.00  0.00     0.105 C 
ENDBRANCH  13  14
ENDBRANCH   1  13
BRANCH   1  23
ATOM     23  S   UNL     1     -11.957 204.361 117.351  1.00  0.00     0.264 S 
ATOM     24  O   UNL     1     -11.433 203.029 117.126  1.00  0.00    -0.201 OA
ATOM     25  O   UNL     1     -11.603 205.108 118.541  1.00  0.00    -0.201 OA
BRANCH  23  26
ATOM     26  C   UNL     1     -11.447 205.354 115.960  1.00  0.00     0.088 A 
ATOM     27  C   UNL     1     -11.264 204.750 114.711  1.00  0.00     0.022 A 
ATOM     28  C   UNL     1     -11.164 206.711 116.143  1.00  0.00     0.022 A 
ATOM     29  C   UNL     1     -10.840 205.522 113.630  1.00  0.00     0.001 A 
ATOM     30  C   UNL     1     -10.740 207.476 115.057  1.00  0.00     0.001 A 
ATOM     31  C   UNL     1     -10.583 206.882 113.802  1.00  0.00     0.000 A 
ENDBRANCH  23  26
ENDBRANCH   1  23
TORSDOF 6
ENDMDL
MODEL 6
REMARK minimizedAffinity -8.42028236
REMARK minimizedRMSD -1
REMARK SMILES CN1CCN(C(=O)CN(c2cc(C(F)(F)F)ccc2Cl)S(=O)(=O)c2ccccc2)CC1
REMARK SMILES IDX 9 1 10 2 12 3 11 4 17 5 18 6 19 7 20 8 13 9 14 10 15 11
REMARK SMILES IDX 16 12 8 13 6 14 7 15 5 16 4 17 30 18 3 19 31 20 2 21 1 22
REMARK SMILES IDX 21 23 22 24 23 25 24 26 25 27 29 28 26 29 28 30 27 31
REMARK H PARENT
REMARK Flexibility Score: inf
ROOT
ATOM      1  N   UNL     1     -13.016 206.145 115.227  1.00  0.00    -0.255 N 
ENDROOT
BRANCH   1   2
ATOM      2  C   UNL     1     -12.050 206.364 114.188  1.00  0.00     0.072 A 
ATOM      3  C   UNL     1     -10.053 207.600 113.504  1.00  0.00     0.058 A 
ATOM      4  C   UNL     1     -11.029 207.285 114.463  1.00  0.00     0.041 A 
ATOM      5  C   UNL     1     -10.108 206.969 112.255  1.00  0.00     0.015 A 
ATOM      6  C   UNL     1     -11.121 206.052 111.967  1.00  0.00     0.023 A 
ATOM      7  C   UNL     1     -12.092 205.748 112.926  1.00  0.00     0.065 A 
ATOM      8  Cl  UNL     1     -13.304 204.598 112.483  1.00  0.00    -0.082 Cl
BRANCH   3   9
ATOM      9  C   UNL     1      -8.952 208.580 113.839  1.00  0.00     0.416 C 
ATOM     10  F   UNL     1      -8.371 209.125 112.737  1.00  0.00    -0.166 F 
ATOM     11  F   UNL     1      -9.402 209.623 114.589  1.00  0.00    -0.166 F 
ATOM     12  F   UNL     1      -7.939 208.016 114.555  1.00  0.00    -0.166 F 
ENDBRANCH   3   9
ENDBRANCH   1   2
BRANCH   1  13
ATOM     13  C   UNL     1     -13.170 204.798 115.813  1.00  0.00     0.235 C 
BRANCH  13  14
ATOM     14  C   UNL     1     -12.681 204.806 117.264  1.00  0.00     0.243 C 
ATOM     15  O   UNL     1     -11.543 205.198 117.543  1.00  0.00    -0.273 OA
ATOM     16  N   UNL     1     -13.541 204.329 118.240  1.00  0.00    -0.339 N 
ATOM     17  C   UNL     1     -13.169 204.479 119.649  1.00  0.00     0.135 C 
ATOM     18  C   UNL     1     -14.853 203.726 117.987  1.00  0.00     0.135 C 
ATOM     19  C   UNL     1     -14.398 204.712 120.548  1.00  0.00     0.105 C 
ATOM     20  C   UNL     1     -15.359 202.908 119.188  1.00  0.00     0.105 C 
ATOM     21  N   UNL     1     -15.472 203.701 120.424  1.00  0.00    -0.303 NA
ATOM     22  C   UNL     1     -15.539 202.833 121.597  1.00  0.00     0.105 C 
ENDBRANCH  13  14
ENDBRANCH   1  13
BRANCH   1  23
ATOM     23  S   UNL     1     -14.320 207.219 115.369  1.00  0.00     0.264 S 
ATOM     24  O   UNL     1     -13.866 208.565 115.086  1.00  0.00    -0.201 OA
ATOM     25  O   UNL     1     -15.039 206.917 116.590  1.00  0.00    -0.201 OA
BRANCH  23  26
ATOM     26  C   UNL     1     -15.391 206.747 114.022  1.00  0.00     0.088 A 
ATOM     27  C   UNL     1     -16.353 205.752 114.221  1.00  0.00     0.022 A 
ATOM     28  C   UNL     1     -15.212 207.324 112.760  1.00  0.00     0.022 A 
ATOM     29  C   UNL     1     -17.172 205.366 113.160  1.00  0.00     0.001 A 
ATOM     30  C   UNL     1     -16.035 206.932 111.704  1.00  0.00     0.001 A 
ATOM     31  C   UNL     1     -17.016 205.959 111.906  1.00  0.00     0.000 A 
ENDBRANCH  23  26
ENDBRANCH   1  23
TORSDOF 6
ENDMDL
MODEL 7
REMARK minimizedAffinity -8.37390137
REMARK minimizedRMSD -1
REMARK SMILES CN1CCN(C(=O)CN(c2cc(C(F)(F)F)ccc2Cl)S(=O)(=O)c2ccccc2)CC1
REMARK SMILES IDX 9 1 10 2 12 3 11 4 17 5 18 6 19 7 20 8 13 9 14 10 15 11
REMARK SMILES IDX 16 12 8 13 6 14 7 15 5 16 4 17 30 18 3 19 31 20 2 21 1 22
REMARK SMILES IDX 21 23 22 24 23 25 24 26 25 27 29 28 26 29 28 30 27 31
REMARK H PARENT
REMARK Flexibility Score: inf
ROOT
ATOM      1  N   UNL     1     -14.001 205.708 114.422  1.00  0.00    -0.255 N 
ENDROOT
BRANCH   1   2
ATOM      2  C   UNL     1     -13.824 205.854 113.006  1.00  0.00     0.072 A 
ATOM      3  C   UNL     1     -12.282 206.472 111.209  1.00  0.00     0.058 A 
ATOM      4  C   UNL     1     -12.555 206.263 112.571  1.00  0.00     0.041 A 
ATOM      5  C   UNL     1     -13.305 206.257 110.277  1.00  0.00     0.015 A 
ATOM      6  C   UNL     1     -14.574 205.853 110.697  1.00  0.00     0.023 A 
ATOM      7  C   UNL     1     -14.838 205.652 112.055  1.00  0.00     0.065 A 
ATOM      8  Cl  UNL     1     -16.435 205.147 112.481  1.00  0.00    -0.082 Cl
BRANCH   3   9
ATOM      9  C   UNL     1     -10.898 206.891 110.771  1.00  0.00     0.416 C 
ATOM     10  F   UNL     1     -10.768 208.237 110.628  1.00  0.00    -0.166 F 
ATOM     11  F   UNL     1      -9.939 206.506 111.656  1.00  0.00    -0.166 F 
ATOM     12  F   UNL     1     -10.535 206.353 109.572  1.00  0.00    -0.166 F 
ENDBRANCH   3   9
ENDBRANCH   1   2
BRANCH   1  13
ATOM     13  C   UNL     1     -14.279 204.374 114.992  1.00  0.00     0.235 C 
BRANCH  13  14
ATOM     14  C   UNL     1     -13.426 204.160 116.246  1.00  0.00     0.243 C 
ATOM     15  O   UNL     1     -12.194 204.223 116.189  1.00  0.00    -0.273 OA
ATOM     16  N   UNL     1     -14.081 203.861 117.431  1.00  0.00    -0.339 N 
ATOM     17  C   UNL     1     -13.310 203.818 118.676  1.00  0.00     0.135 C 
ATOM     18  C   UNL     1     -15.524 203.639 117.565  1.00  0.00     0.135 C 
ATOM     19  C   UNL     1     -14.136 204.304 119.882  1.00  0.00     0.105 C 
ATOM     20  C   UNL     1     -15.880 202.904 118.869  1.00  0.00     0.105 C 
ATOM     21  N   UNL     1     -15.433 203.618 120.078  1.00  0.00    -0.303 NA
ATOM     22  C   UNL     1     -15.406 202.724 121.231  1.00  0.00     0.105 C 
ENDBRANCH  13  14
ENDBRANCH   1  13
BRANCH   1  23
ATOM     23  S   UNL     1     -14.460 207.063 115.332  1.00  0.00     0.264 S 
ATOM     24  O   UNL     1     -15.552 206.702 116.213  1.00  0.00    -0.201 OA
ATOM     25  O   UNL     1     -14.565 208.204 114.446  1.00  0.00    -0.201 OA
BRANCH  23  26
ATOM     26  C   UNL     1     -13.041 207.360 116.373  1.00  0.00     0.088 A 
ATOM     27  C   UNL     1     -13.177 207.281 117.763  1.00  0.00     0.022 A 
ATOM     28  C   UNL     1     -11.825 207.739 115.796  1.00  0.00     0.022 A 
ATOM     29  C   UNL     1     -12.074 207.539 118.576  1.00  0.00     0.001 A 
ATOM     30  C   UNL     1     -10.727 207.996 116.616  1.00  0.00     0.001 A 
ATOM     31  C   UNL     1     -10.851 207.891 118.003  1.00  0.00     0.000 A 
ENDBRANCH  23  26
ENDBRANCH   1  23
TORSDOF 6
ENDMDL
MODEL 8
REMARK minimizedAffinity -8.21901321
REMARK minimizedRMSD -1
REMARK SMILES CN1CCN(C(=O)CN(c2cc(C(F)(F)F)ccc2Cl)S(=O)(=O)c2ccccc2)CC1
REMARK SMILES IDX 9 1 10 2 12 3 11 4 17 5 18 6 19 7 20 8 13 9 14 10 15 11
REMARK SMILES IDX 16 12 8 13 6 14 7 15 5 16 4 17 30 18 3 19 31 20 2 21 1 22
REMARK SMILES IDX 21 23 22 24 23 25 24 26 25 27 29 28 26 29 28 30 27 31
REMARK H PARENT
REMARK Flexibility Score: inf
ROOT
ATOM      1  N   UNL     1     -13.412 206.008 115.680  1.00  0.00    -0.255 N 
ENDROOT
BRANCH   1   2
ATOM      2  C   UNL     1     -12.802 205.516 116.882  1.00  0.00     0.072 A 
ATOM      3  C   UNL     1     -12.876 205.485 119.327  1.00  0.00     0.058 A 
ATOM      4  C   UNL     1     -13.411 205.882 118.091  1.00  0.00     0.041 A 
ATOM      5  C   UNL     1     -11.715 204.701 119.338  1.00  0.00     0.015 A 
ATOM      6  C   UNL     1     -11.097 204.332 118.141  1.00  0.00     0.023 A 
ATOM      7  C   UNL     1     -11.634 204.736 116.915  1.00  0.00     0.065 A 
ATOM      8  Cl  UNL     1     -10.805 204.227 115.486  1.00  0.00    -0.082 Cl
BRANCH   3   9
ATOM      9  C   UNL     1     -13.568 205.877 120.612  1.00  0.00     0.416 C 
ATOM     10  F   UNL     1     -12.733 205.890 121.685  1.00  0.00    -0.166 F 
ATOM     11  F   UNL     1     -14.119 207.120 120.541  1.00  0.00    -0.166 F 
ATOM     12  F   UNL     1     -14.588 205.036 120.944  1.00  0.00    -0.166 F 
ENDBRANCH   3   9
ENDBRANCH   1   2
BRANCH   1  13
ATOM     13  C   UNL     1     -13.167 207.400 115.251  1.00  0.00     0.235 C 
BRANCH  13  14
ATOM     14  C   UNL     1     -11.737 207.810 115.619  1.00  0.00     0.243 C 
ATOM     15  O   UNL     1     -11.494 208.337 116.709  1.00  0.00    -0.273 OA
ATOM     16  N   UNL     1     -10.741 207.601 114.677  1.00  0.00    -0.339 N 
ATOM     17  C   UNL     1      -9.345 207.826 115.060  1.00  0.00     0.135 C 
ATOM     18  C   UNL     1     -10.958 207.104 113.316  1.00  0.00     0.135 C 
ATOM     19  C   UNL     1      -8.389 206.848 114.351  1.00  0.00     0.105 C 
ATOM     20  C   UNL     1      -9.763 207.398 112.392  1.00  0.00     0.105 C 
ATOM     21  N   UNL     1      -8.499 206.816 112.876  1.00  0.00    -0.303 NA
ATOM     22  C   UNL     1      -7.352 207.449 112.231  1.00  0.00     0.105 C 
ENDBRANCH  13  14
ENDBRANCH   1  13
BRANCH   1  23
ATOM     23  S   UNL     1     -14.806 205.240 115.097  1.00  0.00     0.264 S 
ATOM     24  O   UNL     1     -15.978 205.921 115.608  1.00  0.00    -0.201 OA
ATOM     25  O   UNL     1     -14.648 203.808 115.257  1.00  0.00    -0.201 OA
BRANCH  23  26
ATOM     26  C   UNL     1     -14.751 205.561 113.343  1.00  0.00     0.088 A 
ATOM     27  C   UNL     1     -15.721 206.384 112.761  1.00  0.00     0.022 A 
ATOM     28  C   UNL     1     -13.784 204.931 112.552  1.00  0.00     0.022 A 
ATOM     29  C   UNL     1     -15.693 206.613 111.386  1.00  0.00     0.001 A 
ATOM     30  C   UNL     1     -13.763 205.165 111.178  1.00  0.00     0.001 A 
ATOM     31  C   UNL     1     -14.713 206.009 110.598  1.00  0.00     0.000 A 
ENDBRANCH  23  26
ENDBRANCH   1  23
TORSDOF 6
ENDMDL
MODEL 9
REMARK minimizedAffinity -8.07034302
REMARK minimizedRMSD -1
REMARK SMILES CN1CCN(C(=O)CN(c2cc(C(F)(F)F)ccc2Cl)S(=O)(=O)c2ccccc2)CC1
REMARK SMILES IDX 9 1 10 2 12 3 11 4 17 5 18 6 19 7 20 8 13 9 14 10 15 11
REMARK SMILES IDX 16 12 8 13 6 14 7 15 5 16 4 17 30 18 3 19 31 20 2 21 1 22
REMARK SMILES IDX 21 23 22 24 23 25 24 26 25 27 29 28 26 29 28 30 27 31
REMARK H PARENT
REMARK Flexibility Score: inf
ROOT
ATOM      1  N   UNL     1     -13.593 204.232 116.893  1.00  0.00    -0.255 N 
ENDROOT
BRANCH   1   2
ATOM      2  C   UNL     1     -14.304 205.085 115.985  1.00  0.00     0.072 A 
ATOM      3  C   UNL     1     -15.260 205.311 113.744  1.00  0.00     0.058 A 
ATOM      4  C   UNL     1     -14.599 204.551 114.722  1.00  0.00     0.041 A 
ATOM      5  C   UNL     1     -15.633 206.627 114.052  1.00  0.00     0.015 A 
ATOM      6  C   UNL     1     -15.342 207.172 115.305  1.00  0.00     0.023 A 
ATOM      7  C   UNL     1     -14.680 206.408 116.270  1.00  0.00     0.065 A 
ATOM      8  Cl  UNL     1     -14.367 207.164 117.793  1.00  0.00    -0.082 Cl
BRANCH   3   9
ATOM      9  C   UNL     1     -15.585 204.700 112.401  1.00  0.00     0.416 C 
ATOM     10  F   UNL     1     -14.857 205.232 111.383  1.00  0.00    -0.166 F 
ATOM     11  F   UNL     1     -15.352 203.359 112.377  1.00  0.00    -0.166 F 
ATOM     12  F   UNL     1     -16.891 204.857 112.047  1.00  0.00    -0.166 F 
ENDBRANCH   3   9
ENDBRANCH   1   2
BRANCH   1  13
ATOM     13  C   UNL     1     -14.243 203.789 118.143  1.00  0.00     0.235 C 
BRANCH  13  14
ATOM     14  C   UNL     1     -15.137 202.578 117.860  1.00  0.00     0.243 C 
ATOM     15  O   UNL     1     -14.896 201.825 116.911  1.00  0.00    -0.273 OA
ATOM     16  N   UNL     1     -16.237 202.380 118.680  1.00  0.00    -0.339 N 
ATOM     17  C   UNL     1     -17.011 201.144 118.541  1.00  0.00     0.135 C 
ATOM     18  C   UNL     1     -16.671 203.290 119.744  1.00  0.00     0.135 C 
ATOM     19  C   UNL     1     -17.577 200.664 119.891  1.00  0.00     0.105 C 
ATOM     20  C   UNL     1     -18.131 203.040 120.162  1.00  0.00     0.105 C 
ATOM     21  N   UNL     1     -18.372 201.666 120.635  1.00  0.00    -0.303 NA
ATOM     22  C   UNL     1     -19.797 201.350 120.618  1.00  0.00     0.105 C 
ENDBRANCH  13  14
ENDBRANCH   1  13
BRANCH   1  23
ATOM     23  S   UNL     1     -11.899 204.210 116.837  1.00  0.00     0.264 S 
ATOM     24  O   UNL     1     -11.462 204.413 115.470  1.00  0.00    -0.201 OA
ATOM     25  O   UNL     1     -11.423 203.082 117.610  1.00  0.00    -0.201 OA
BRANCH  23  26
ATOM     26  C   UNL     1     -11.437 205.676 117.744  1.00  0.00     0.088 A 
ATOM     27  C   UNL     1     -11.069 206.831 117.046  1.00  0.00     0.022 A 
ATOM     28  C   UNL     1     -11.377 205.636 119.140  1.00  0.00     0.022 A 
ATOM     29  C   UNL     1     -10.683 207.968 117.756  1.00  0.00     0.001 A 
ATOM     30  C   UNL     1     -10.990 206.777 119.843  1.00  0.00     0.001 A 
ATOM     31  C   UNL     1     -10.648 207.942 119.151  1.00  0.00     0.000 A 
ENDBRANCH  23  26
ENDBRANCH   1  23
TORSDOF 6
ENDMDL
