MODEL 1
REMARK minimizedAffinity -8.36971283
REMARK minimizedRMSD -1
REMARK SMILES CCn1c(SCC(=O)Nc2cccc(C(C)=O)c2)nnc1-c1ccncc1
REMARK SMILES IDX 6 1 7 2 9 3 8 5 10 6 18 7 11 8 14 9 12 10 13 11 15 12 17 13
REMARK SMILES IDX 16 14 5 15 4 16 19 17 3 18 20 19 21 20 2 21 1 22 22 23 23 24
REMARK SMILES IDX 27 25 24 26 26 27 25 28
REMARK H PARENT 9 4
REMARK Flexibility Score: inf
ROOT
ATOM      1  C   UNL     1     -14.830 204.258 117.264  1.00  0.00     0.178 C 
ENDROOT
BRANCH   1   2
ATOM      2  C   UNL     1     -15.104 204.276 115.763  1.00  0.00     0.234 C 
ATOM      3  N   UNL     1     -15.266 205.520 115.193  1.00  0.00    -0.325 N 
ATOM      4  H   UNL     1     -15.169 206.307 115.820  1.00  0.00     0.169 HD
ATOM      5  O   UNL     1     -15.188 203.206 115.161  1.00  0.00    -0.274 OA
BRANCH   3   6
ATOM      6  C   UNL     1     -15.568 205.838 113.857  1.00  0.00     0.041 A 
ATOM      7  C   UNL     1     -16.912 206.081 113.548  1.00  0.00     0.038 A 
ATOM      8  C   UNL     1     -14.620 205.915 112.838  1.00  0.00     0.026 A 
ATOM      9  C   UNL     1     -17.307 206.405 112.241  1.00  0.00     0.019 A 
ATOM     10  C   UNL     1     -15.008 206.220 111.530  1.00  0.00     0.003 A 
ATOM     11  C   UNL     1     -16.347 206.464 111.228  1.00  0.00     0.012 A 
BRANCH   9  12
ATOM     12  C   UNL     1     -18.752 206.677 111.988  1.00  0.00     0.159 C 
ATOM     13  O   UNL     1     -19.603 206.225 112.751  1.00  0.00    -0.295 OA
ATOM     14  C   UNL     1     -19.146 207.505 110.792  1.00  0.00     0.093 C 
ENDBRANCH   9  12
ENDBRANCH   3   6
ENDBRANCH   1   2
BRANCH   1  15
ATOM     15  S   UNL     1     -14.928 202.620 118.054  1.00  0.00    -0.076 SA
BRANCH  15  16
ATOM     16  C   UNL     1     -16.624 202.502 118.363  1.00  0.00     0.191 A 
ATOM     17  N   UNL     1     -17.519 202.119 117.487  1.00  0.00    -0.123 NA
ATOM     18  N   UNL     1     -17.232 202.822 119.547  1.00  0.00    -0.302 N 
ATOM     19  N   UNL     1     -18.736 202.131 118.110  1.00  0.00    -0.129 NA
ATOM     20  C   UNL     1     -18.576 202.565 119.349  1.00  0.00     0.164 A 
BRANCH  18  21
ATOM     21  C   UNL     1     -16.588 203.230 120.779  1.00  0.00     0.123 C 
ATOM     22  C   UNL     1     -16.431 202.085 121.765  1.00  0.00     0.028 C 
ENDBRANCH  18  21
BRANCH  20  23
ATOM     23  C   UNL     1     -19.648 202.663 120.331  1.00  0.00     0.022 A 
ATOM     24  C   UNL     1     -20.109 201.499 120.949  1.00  0.00     0.032 A 
ATOM     25  C   UNL     1     -20.264 203.876 120.638  1.00  0.00     0.032 A 
ATOM     26  C   UNL     1     -21.132 201.602 121.874  1.00  0.00     0.111 A 
ATOM     27  C   UNL     1     -21.288 203.873 121.570  1.00  0.00     0.111 A 
ATOM     28  N   UNL     1     -21.726 202.768 122.204  1.00  0.00    -0.265 NA
ENDBRANCH  20  23
ENDBRANCH  15  16
ENDBRANCH   1  15
TORSDOF 7
ENDMDL
MODEL 2
REMARK minimizedAffinity -8.25869465
REMARK minimizedRMSD -1
REMARK SMILES CCn1c(SCC(=O)Nc2cccc(C(C)=O)c2)nnc1-c1ccncc1
REMARK SMILES IDX 6 1 7 2 9 3 8 5 10 6 18 7 11 8 14 9 12 10 13 11 15 12 17 13
REMARK SMILES IDX 16 14 5 15 4 16 19 17 3 18 20 19 21 20 2 21 1 22 22 23 23 24
REMARK SMILES IDX 27 25 24 26 26 27 25 28
REMARK H PARENT 9 4
REMARK Flexibility Score: inf
ROOT
ATOM      1  C   UNL     1     -15.029 203.646 117.462  1.00  0.00     0.178 C 
ENDROOT
BRANCH   1   2
ATOM      2  C   UNL     1     -15.226 204.200 116.054  1.00  0.00     0.234 C 
ATOM      3  N   UNL     1     -14.156 204.066 115.197  1.00  0.00    -0.325 N 
ATOM      4  H   UNL     1     -13.345 203.595 115.576  1.00  0.00     0.169 HD
ATOM      5  O   UNL     1     -16.293 204.744 115.773  1.00  0.00    -0.274 OA
BRANCH   3   6
ATOM      6  C   UNL     1     -14.034 204.516 113.869  1.00  0.00     0.041 A 
ATOM      7  C   UNL     1     -12.909 205.289 113.560  1.00  0.00     0.038 A 
ATOM      8  C   UNL     1     -14.962 204.247 112.865  1.00  0.00     0.026 A 
ATOM      9  C   UNL     1     -12.705 205.783 112.262  1.00  0.00     0.019 A 
ATOM     10  C   UNL     1     -14.775 204.749 111.574  1.00  0.00     0.003 A 
ATOM     11  C   UNL     1     -13.651 205.517 111.269  1.00  0.00     0.012 A 
BRANCH   9  12
ATOM     12  C   UNL     1     -11.470 206.578 111.995  1.00  0.00     0.159 C 
ATOM     13  O   UNL     1     -10.863 207.097 112.929  1.00  0.00    -0.295 OA
ATOM     14  C   UNL     1     -10.988 206.733 110.576  1.00  0.00     0.093 C 
ENDBRANCH   9  12
ENDBRANCH   3   6
ENDBRANCH   1   2
BRANCH   1  15
ATOM     15  S   UNL     1     -15.477 201.895 117.679  1.00  0.00    -0.076 SA
BRANCH  15  16
ATOM     16  C   UNL     1     -17.142 202.032 118.127  1.00  0.00     0.191 A 
ATOM     17  N   UNL     1     -18.148 201.978 117.290  1.00  0.00    -0.123 NA
ATOM     18  N   UNL     1     -17.599 202.241 119.399  1.00  0.00    -0.302 N 
ATOM     19  N   UNL     1     -19.297 202.098 118.020  1.00  0.00    -0.129 NA
ATOM     20  C   UNL     1     -18.977 202.271 119.292  1.00  0.00     0.164 A 
BRANCH  18  21
ATOM     21  C   UNL     1     -16.811 202.302 120.613  1.00  0.00     0.123 C 
ATOM     22  C   UNL     1     -16.488 203.726 121.031  1.00  0.00     0.028 C 
ENDBRANCH  18  21
BRANCH  20  23
ATOM     23  C   UNL     1     -19.945 202.385 120.375  1.00  0.00     0.022 A 
ATOM     24  C   UNL     1     -20.415 203.650 120.733  1.00  0.00     0.032 A 
ATOM     25  C   UNL     1     -20.382 201.277 121.100  1.00  0.00     0.032 A 
ATOM     26  C   UNL     1     -21.328 203.749 121.767  1.00  0.00     0.111 A 
ATOM     27  C   UNL     1     -21.290 201.481 122.126  1.00  0.00     0.111 A 
ATOM     28  N   UNL     1     -21.782 202.688 122.466  1.00  0.00    -0.265 NA
ENDBRANCH  20  23
ENDBRANCH  15  16
ENDBRANCH   1  15
TORSDOF 7
ENDMDL
MODEL 3
REMARK minimizedAffinity -8.05900288
REMARK minimizedRMSD -1
REMARK SMILES CCn1c(SCC(=O)Nc2cccc(C(C)=O)c2)nnc1-c1ccncc1
REMARK SMILES IDX 6 1 7 2 9 3 8 5 10 6 18 7 11 8 14 9 12 10 13 11 15 12 17 13
REMARK SMILES IDX 16 14 5 15 4 16 19 17 3 18 20 19 21 20 2 21 1 22 22 23 23 24
REMARK SMILES IDX 27 25 24 26 26 27 25 28
REMARK H PARENT 9 4
REMARK Flexibility Score: inf
ROOT
ATOM      1  C   UNL     1     -14.380 203.520 117.082  1.00  0.00     0.178 C 
ENDROOT
BRANCH   1   2
ATOM      2  C   UNL     1     -15.120 204.161 115.911  1.00  0.00     0.234 C 
ATOM      3  N   UNL     1     -14.389 204.332 114.756  1.00  0.00    -0.325 N 
ATOM      4  H   UNL     1     -13.434 204.000 114.786  1.00  0.00     0.169 HD
ATOM      5  O   UNL     1     -16.292 204.504 116.063  1.00  0.00    -0.274 OA
BRANCH   3   6
ATOM      6  C   UNL     1     -14.789 204.927 113.545  1.00  0.00     0.041 A 
ATOM      7  C   UNL     1     -16.136 205.291 113.430  1.00  0.00     0.038 A 
ATOM      8  C   UNL     1     -13.936 205.161 112.469  1.00  0.00     0.026 A 
ATOM      9  C   UNL     1     -16.627 205.889 112.259  1.00  0.00     0.019 A 
ATOM     10  C   UNL     1     -14.419 205.741 111.293  1.00  0.00     0.003 A 
ATOM     11  C   UNL     1     -15.762 206.105 111.184  1.00  0.00     0.012 A 
BRANCH   9  12
ATOM     12  C   UNL     1     -18.067 206.277 112.215  1.00  0.00     0.159 C 
ATOM     13  O   UNL     1     -18.858 205.786 113.017  1.00  0.00    -0.295 OA
ATOM     14  C   UNL     1     -18.531 207.266 111.177  1.00  0.00     0.093 C 
ENDBRANCH   9  12
ENDBRANCH   3   6
ENDBRANCH   1   2
BRANCH   1  15
ATOM     15  S   UNL     1     -13.289 204.637 118.018  1.00  0.00    -0.076 SA
BRANCH  15  16
ATOM     16  C   UNL     1     -12.090 205.002 116.827  1.00  0.00     0.191 A 
ATOM     17  N   UNL     1     -11.297 204.122 116.269  1.00  0.00    -0.123 NA
ATOM     18  N   UNL     1     -11.812 206.255 116.350  1.00  0.00    -0.302 N 
ATOM     19  N   UNL     1     -10.514 204.787 115.367  1.00  0.00    -0.129 NA
ATOM     20  C   UNL     1     -10.808 206.076 115.416  1.00  0.00     0.164 A 
BRANCH  18  21
ATOM     21  C   UNL     1     -12.504 207.486 116.670  1.00  0.00     0.123 C 
ATOM     22  C   UNL     1     -13.613 207.809 115.684  1.00  0.00     0.028 C 
ENDBRANCH  18  21
BRANCH  20  23
ATOM     23  C   UNL     1     -10.209 207.089 114.558  1.00  0.00     0.022 A 
ATOM     24  C   UNL     1     -10.467 207.054 113.187  1.00  0.00     0.032 A 
ATOM     25  C   UNL     1      -9.345 208.065 115.054  1.00  0.00     0.032 A 
ATOM     26  C   UNL     1      -9.888 208.016 112.379  1.00  0.00     0.111 A 
ATOM     27  C   UNL     1      -8.806 208.978 114.163  1.00  0.00     0.111 A 
ATOM     28  N   UNL     1      -9.068 208.984 112.841  1.00  0.00    -0.265 NA
ENDBRANCH  20  23
ENDBRANCH  15  16
ENDBRANCH   1  15
TORSDOF 7
ENDMDL
MODEL 4
REMARK minimizedAffinity -8.05686188
REMARK minimizedRMSD -1
REMARK SMILES CCn1c(SCC(=O)Nc2cccc(C(C)=O)c2)nnc1-c1ccncc1
REMARK SMILES IDX 6 1 7 2 9 3 8 5 10 6 18 7 11 8 14 9 12 10 13 11 15 12 17 13
REMARK SMILES IDX 16 14 5 15 4 16 19 17 3 18 20 19 21 20 2 21 1 22 22 23 23 24
REMARK SMILES IDX 27 25 24 26 26 27 25 28
REMARK H PARENT 9 4
REMARK Flexibility Score: inf
ROOT
ATOM      1  C   UNL     1     -15.277 204.464 117.296  1.00  0.00     0.178 C 
ENDROOT
BRANCH   1   2
ATOM      2  C   UNL     1     -15.183 204.371 115.776  1.00  0.00     0.234 C 
ATOM      3  N   UNL     1     -15.335 205.554 115.087  1.00  0.00    -0.325 N 
ATOM      4  H   UNL     1     -15.477 206.378 115.655  1.00  0.00     0.169 HD
ATOM      5  O   UNL     1     -15.005 203.269 115.258  1.00  0.00    -0.274 OA
BRANCH   3   6
ATOM      6  C   UNL     1     -15.340 205.763 113.696  1.00  0.00     0.041 A 
ATOM      7  C   UNL     1     -14.097 205.796 113.052  1.00  0.00     0.038 A 
ATOM      8  C   UNL     1     -16.494 205.946 112.937  1.00  0.00     0.026 A 
ATOM      9  C   UNL     1     -14.004 206.001 111.667  1.00  0.00     0.019 A 
ATOM     10  C   UNL     1     -16.410 206.168 111.559  1.00  0.00     0.003 A 
ATOM     11  C   UNL     1     -15.169 206.197 110.922  1.00  0.00     0.012 A 
BRANCH   9  12
ATOM     12  C   UNL     1     -12.649 205.998 111.043  1.00  0.00     0.159 C 
ATOM     13  O   UNL     1     -11.772 205.261 111.488  1.00  0.00    -0.295 OA
ATOM     14  C   UNL     1     -12.376 206.907 109.872  1.00  0.00     0.093 C 
ENDBRANCH   9  12
ENDBRANCH   3   6
ENDBRANCH   1   2
BRANCH   1  15
ATOM     15  S   UNL     1     -13.722 204.875 118.148  1.00  0.00    -0.076 SA
BRANCH  15  16
ATOM     16  C   UNL     1     -13.101 206.121 117.122  1.00  0.00     0.191 A 
ATOM     17  N   UNL     1     -13.733 207.229 116.826  1.00  0.00    -0.123 NA
ATOM     18  N   UNL     1     -11.894 206.081 116.479  1.00  0.00    -0.302 N 
ATOM     19  N   UNL     1     -12.913 207.966 116.016  1.00  0.00    -0.129 NA
ATOM     20  C   UNL     1     -11.807 207.277 115.790  1.00  0.00     0.164 A 
BRANCH  18  21
ATOM     21  C   UNL     1     -10.877 205.056 116.591  1.00  0.00     0.123 C 
ATOM     22  C   UNL     1      -9.950 205.277 117.773  1.00  0.00     0.028 C 
ENDBRANCH  18  21
BRANCH  20  23
ATOM     23  C   UNL     1     -10.679 207.767 115.010  1.00  0.00     0.022 A 
ATOM     24  C   UNL     1     -10.522 207.325 113.695  1.00  0.00     0.032 A 
ATOM     25  C   UNL     1      -9.720 208.624 115.549  1.00  0.00     0.032 A 
ATOM     26  C   UNL     1      -9.444 207.791 112.964  1.00  0.00     0.111 A 
ATOM     27  C   UNL     1      -8.670 209.025 114.740  1.00  0.00     0.111 A 
ATOM     28  N   UNL     1      -8.518 208.640 113.458  1.00  0.00    -0.265 NA
ENDBRANCH  20  23
ENDBRANCH  15  16
ENDBRANCH   1  15
TORSDOF 7
ENDMDL
MODEL 5
REMARK minimizedAffinity -7.9393096
REMARK minimizedRMSD -1
REMARK SMILES CCn1c(SCC(=O)Nc2cccc(C(C)=O)c2)nnc1-c1ccncc1
REMARK SMILES IDX 6 1 7 2 9 3 8 5 10 6 18 7 11 8 14 9 12 10 13 11 15 12 17 13
REMARK SMILES IDX 16 14 5 15 4 16 19 17 3 18 20 19 21 20 2 21 1 22 22 23 23 24
REMARK SMILES IDX 27 25 24 26 26 27 25 28
REMARK H PARENT 9 4
REMARK Flexibility Score: inf
ROOT
ATOM      1  C   UNL     1     -14.665 205.155 116.818  1.00  0.00     0.178 C 
ENDROOT
BRANCH   1   2
ATOM      2  C   UNL     1     -14.696 204.922 115.310  1.00  0.00     0.234 C 
ATOM      3  N   UNL     1     -14.142 205.915 114.533  1.00  0.00    -0.325 N 
ATOM      4  H   UNL     1     -13.748 206.698 115.036  1.00  0.00     0.169 HD
ATOM      5  O   UNL     1     -15.223 203.897 114.878  1.00  0.00    -0.274 OA
BRANCH   3   6
ATOM      6  C   UNL     1     -14.069 205.992 113.130  1.00  0.00     0.041 A 
ATOM      7  C   UNL     1     -12.816 206.276 112.573  1.00  0.00     0.038 A 
ATOM      8  C   UNL     1     -15.157 205.813 112.279  1.00  0.00     0.026 A 
ATOM      9  C   UNL     1     -12.647 206.374 111.183  1.00  0.00     0.019 A 
ATOM     10  C   UNL     1     -15.002 205.925 110.895  1.00  0.00     0.003 A 
ATOM     11  C   UNL     1     -13.751 206.206 110.344  1.00  0.00     0.012 A 
BRANCH   9  12
ATOM     12  C   UNL     1     -11.279 206.653 110.656  1.00  0.00     0.159 C 
ATOM     13  O   UNL     1     -11.081 206.661 109.443  1.00  0.00    -0.295 OA
ATOM     14  C   UNL     1     -10.157 206.917 111.626  1.00  0.00     0.093 C 
ENDBRANCH   9  12
ENDBRANCH   3   6
ENDBRANCH   1   2
BRANCH   1  15
ATOM     15  S   UNL     1     -13.264 204.393 117.695  1.00  0.00    -0.076 SA
BRANCH  15  16
ATOM     16  C   UNL     1     -11.933 204.966 116.752  1.00  0.00     0.191 A 
ATOM     17  N   UNL     1     -11.389 204.314 115.754  1.00  0.00    -0.123 NA
ATOM     18  N   UNL     1     -11.276 206.149 116.955  1.00  0.00    -0.302 N 
ATOM     19  N   UNL     1     -10.389 205.098 115.248  1.00  0.00    -0.129 NA
ATOM     20  C   UNL     1     -10.304 206.201 115.973  1.00  0.00     0.164 A 
BRANCH  18  21
ATOM     21  C   UNL     1     -11.606 207.178 117.919  1.00  0.00     0.123 C 
ATOM     22  C   UNL     1     -10.780 207.077 119.190  1.00  0.00     0.028 C 
ENDBRANCH  18  21
BRANCH  20  23
ATOM     23  C   UNL     1      -9.383 207.296 115.699  1.00  0.00     0.022 A 
ATOM     24  C   UNL     1      -9.786 208.323 114.844  1.00  0.00     0.032 A 
ATOM     25  C   UNL     1      -8.091 207.328 116.224  1.00  0.00     0.032 A 
ATOM     26  C   UNL     1      -8.902 209.354 114.585  1.00  0.00     0.111 A 
ATOM     27  C   UNL     1      -7.276 208.398 115.895  1.00  0.00     0.111 A 
ATOM     28  N   UNL     1      -7.657 209.417 115.101  1.00  0.00    -0.265 NA
ENDBRANCH  20  23
ENDBRANCH  15  16
ENDBRANCH   1  15
TORSDOF 7
ENDMDL
MODEL 6
REMARK minimizedAffinity -7.87485027
REMARK minimizedRMSD -1
REMARK SMILES CCn1c(SCC(=O)Nc2cccc(C(C)=O)c2)nnc1-c1ccncc1
REMARK SMILES IDX 6 1 7 2 9 3 8 5 10 6 18 7 11 8 14 9 12 10 13 11 15 12 17 13
REMARK SMILES IDX 16 14 5 15 4 16 19 17 3 18 20 19 21 20 2 21 1 22 22 23 23 24
REMARK SMILES IDX 27 25 24 26 26 27 25 28
REMARK H PARENT 9 4
REMARK Flexibility Score: inf
ROOT
ATOM      1  C   UNL     1     -11.564 205.755 118.007  1.00  0.00     0.178 C 
ENDROOT
BRANCH   1   2
ATOM      2  C   UNL     1     -11.161 206.551 116.769  1.00  0.00     0.234 C 
ATOM      3  N   UNL     1     -10.963 205.819 115.619  1.00  0.00    -0.325 N 
ATOM      4  H   UNL     1     -11.122 204.824 115.698  1.00  0.00     0.169 HD
ATOM      5  O   UNL     1     -11.014 207.769 116.866  1.00  0.00    -0.274 OA
BRANCH   3   6
ATOM      6  C   UNL     1     -10.550 206.272 114.352  1.00  0.00     0.041 A 
ATOM      7  C   UNL     1      -9.197 206.604 114.205  1.00  0.00     0.038 A 
ATOM      8  C   UNL     1     -11.399 206.415 113.257  1.00  0.00     0.026 A 
ATOM      9  C   UNL     1      -8.694 207.066 112.979  1.00  0.00     0.019 A 
ATOM     10  C   UNL     1     -10.910 206.891 112.037  1.00  0.00     0.003 A 
ATOM     11  C   UNL     1      -9.562 207.217 111.895  1.00  0.00     0.012 A 
BRANCH   9  12
ATOM     12  C   UNL     1      -7.238 207.376 112.886  1.00  0.00     0.159 C 
ATOM     13  O   UNL     1      -6.690 208.018 113.779  1.00  0.00    -0.295 OA
ATOM     14  C   UNL     1      -6.460 206.897 111.687  1.00  0.00     0.093 C 
ENDBRANCH   9  12
ENDBRANCH   3   6
ENDBRANCH   1   2
BRANCH   1  15
ATOM     15  S   UNL     1     -13.354 205.653 118.318  1.00  0.00    -0.076 SA
BRANCH  15  16
ATOM     16  C   UNL     1     -13.941 205.253 116.742  1.00  0.00     0.191 A 
ATOM     17  N   UNL     1     -13.775 204.095 116.154  1.00  0.00    -0.123 NA
ATOM     18  N   UNL     1     -14.622 206.106 115.917  1.00  0.00    -0.302 N 
ATOM     19  N   UNL     1     -14.400 204.157 114.939  1.00  0.00    -0.129 NA
ATOM     20  C   UNL     1     -14.903 205.369 114.781  1.00  0.00     0.164 A 
BRANCH  18  21
ATOM     21  C   UNL     1     -15.055 207.455 116.218  1.00  0.00     0.123 C 
ATOM     22  C   UNL     1     -14.188 208.511 115.554  1.00  0.00     0.028 C 
ENDBRANCH  18  21
BRANCH  20  23
ATOM     23  C   UNL     1     -15.684 205.790 113.626  1.00  0.00     0.022 A 
ATOM     24  C   UNL     1     -15.044 206.462 112.583  1.00  0.00     0.032 A 
ATOM     25  C   UNL     1     -17.062 205.589 113.549  1.00  0.00     0.032 A 
ATOM     26  C   UNL     1     -15.796 206.864 111.494  1.00  0.00     0.111 A 
ATOM     27  C   UNL     1     -17.729 206.039 112.421  1.00  0.00     0.111 A 
ATOM     28  N   UNL     1     -17.126 206.658 111.388  1.00  0.00    -0.265 NA
ENDBRANCH  20  23
ENDBRANCH  15  16
ENDBRANCH   1  15
TORSDOF 7
ENDMDL
MODEL 7
REMARK minimizedAffinity -7.794806
REMARK minimizedRMSD -1
REMARK SMILES CCn1c(SCC(=O)Nc2cccc(C(C)=O)c2)nnc1-c1ccncc1
REMARK SMILES IDX 6 1 7 2 9 3 8 5 10 6 18 7 11 8 14 9 12 10 13 11 15 12 17 13
REMARK SMILES IDX 16 14 5 15 4 16 19 17 3 18 20 19 21 20 2 21 1 22 22 23 23 24
REMARK SMILES IDX 27 25 24 26 26 27 25 28
REMARK H PARENT 9 4
REMARK Flexibility Score: inf
ROOT
ATOM      1  C   UNL     1     -14.680 204.190 118.090  1.00  0.00     0.178 C 
ENDROOT
BRANCH   1   2
ATOM      2  C   UNL     1     -14.365 204.933 116.795  1.00  0.00     0.234 C 
ATOM      3  N   UNL     1     -13.467 204.319 115.949  1.00  0.00    -0.325 N 
ATOM      4  H   UNL     1     -13.114 203.423 116.258  1.00  0.00     0.169 HD
ATOM      5  O   UNL     1     -14.898 206.023 116.590  1.00  0.00    -0.274 OA
BRANCH   3   6
ATOM      6  C   UNL     1     -12.961 204.784 114.722  1.00  0.00     0.041 A 
ATOM      7  C   UNL     1     -13.880 204.962 113.681  1.00  0.00     0.038 A 
ATOM      8  C   UNL     1     -11.616 205.063 114.486  1.00  0.00     0.026 A 
ATOM      9  C   UNL     1     -13.466 205.420 112.420  1.00  0.00     0.019 A 
ATOM     10  C   UNL     1     -11.193 205.504 113.229  1.00  0.00     0.003 A 
ATOM     11  C   UNL     1     -12.113 205.682 112.195  1.00  0.00     0.012 A 
BRANCH   9  12
ATOM     12  C   UNL     1     -14.503 205.613 111.364  1.00  0.00     0.159 C 
ATOM     13  O   UNL     1     -14.162 205.802 110.199  1.00  0.00    -0.295 OA
ATOM     14  C   UNL     1     -15.960 205.576 111.749  1.00  0.00     0.093 C 
ENDBRANCH   9  12
ENDBRANCH   3   6
ENDBRANCH   1   2
BRANCH   1  15
ATOM     15  S   UNL     1     -15.108 202.432 117.896  1.00  0.00    -0.076 SA
BRANCH  15  16
ATOM     16  C   UNL     1     -16.800 202.462 118.249  1.00  0.00     0.191 A 
ATOM     17  N   UNL     1     -17.752 202.405 117.351  1.00  0.00    -0.123 NA
ATOM     18  N   UNL     1     -17.340 202.577 119.501  1.00  0.00    -0.302 N 
ATOM     19  N   UNL     1     -18.946 202.428 118.016  1.00  0.00    -0.129 NA
ATOM     20  C   UNL     1     -18.710 202.545 119.312  1.00  0.00     0.164 A 
BRANCH  18  21
ATOM     21  C   UNL     1     -16.628 202.609 120.762  1.00  0.00     0.123 C 
ATOM     22  C   UNL     1     -16.543 204.006 121.351  1.00  0.00     0.028 C 
ENDBRANCH  18  21
BRANCH  20  23
ATOM     23  C   UNL     1     -19.743 202.551 120.339  1.00  0.00     0.022 A 
ATOM     24  C   UNL     1     -20.147 201.339 120.902  1.00  0.00     0.032 A 
ATOM     25  C   UNL     1     -20.379 203.724 120.744  1.00  0.00     0.032 A 
ATOM     26  C   UNL     1     -21.133 201.355 121.871  1.00  0.00     0.111 A 
ATOM     27  C   UNL     1     -21.364 203.635 121.714  1.00  0.00     0.111 A 
ATOM     28  N   UNL     1     -21.745 202.481 122.295  1.00  0.00    -0.265 NA
ENDBRANCH  20  23
ENDBRANCH  15  16
ENDBRANCH   1  15
TORSDOF 7
ENDMDL
MODEL 8
REMARK minimizedAffinity -7.69335651
REMARK minimizedRMSD -1
REMARK SMILES CCn1c(SCC(=O)Nc2cccc(C(C)=O)c2)nnc1-c1ccncc1
REMARK SMILES IDX 6 1 7 2 9 3 8 5 10 6 18 7 11 8 14 9 12 10 13 11 15 12 17 13
REMARK SMILES IDX 16 14 5 15 4 16 19 17 3 18 20 19 21 20 2 21 1 22 22 23 23 24
REMARK SMILES IDX 27 25 24 26 26 27 25 28
REMARK H PARENT 9 4
REMARK Flexibility Score: inf
ROOT
ATOM      1  C   UNL     1     -14.902 202.900 116.673  1.00  0.00     0.178 C 
ENDROOT
BRANCH   1   2
ATOM      2  C   UNL     1     -15.839 202.218 117.666  1.00  0.00     0.234 C 
ATOM      3  N   UNL     1     -16.857 202.998 118.169  1.00  0.00    -0.325 N 
ATOM      4  H   UNL     1     -16.899 203.945 117.819  1.00  0.00     0.169 HD
ATOM      5  O   UNL     1     -15.627 201.046 117.974  1.00  0.00    -0.274 OA
BRANCH   3   6
ATOM      6  C   UNL     1     -17.833 202.655 119.122  1.00  0.00     0.041 A 
ATOM      7  C   UNL     1     -17.424 202.598 120.460  1.00  0.00     0.038 A 
ATOM      8  C   UNL     1     -19.160 202.366 118.813  1.00  0.00     0.026 A 
ATOM      9  C   UNL     1     -18.329 202.263 121.480  1.00  0.00     0.019 A 
ATOM     10  C   UNL     1     -20.064 202.015 119.820  1.00  0.00     0.003 A 
ATOM     11  C   UNL     1     -19.653 201.962 121.152  1.00  0.00     0.012 A 
BRANCH   9  12
ATOM     12  C   UNL     1     -17.832 202.247 122.887  1.00  0.00     0.159 C 
ATOM     13  O   UNL     1     -16.629 202.128 123.110  1.00  0.00    -0.295 OA
ATOM     14  C   UNL     1     -18.820 202.374 124.017  1.00  0.00     0.093 C 
ENDBRANCH   9  12
ENDBRANCH   3   6
ENDBRANCH   1   2
BRANCH   1  15
ATOM     15  S   UNL     1     -15.445 204.535 116.086  1.00  0.00    -0.076 SA
BRANCH  15  16
ATOM     16  C   UNL     1     -14.782 204.551 114.489  1.00  0.00     0.191 A 
ATOM     17  N   UNL     1     -15.066 203.680 113.553  1.00  0.00    -0.123 NA
ATOM     18  N   UNL     1     -13.864 205.455 114.028  1.00  0.00    -0.302 N 
ATOM     19  N   UNL     1     -14.369 204.039 112.433  1.00  0.00    -0.129 NA
ATOM     20  C   UNL     1     -13.632 205.100 112.712  1.00  0.00     0.164 A 
BRANCH  18  21
ATOM     21  C   UNL     1     -13.339 206.606 114.733  1.00  0.00     0.123 C 
ATOM     22  C   UNL     1     -14.271 207.803 114.677  1.00  0.00     0.028 C 
ENDBRANCH  18  21
BRANCH  20  23
ATOM     23  C   UNL     1     -12.793 205.796 111.744  1.00  0.00     0.022 A 
ATOM     24  C   UNL     1     -13.366 206.252 110.556  1.00  0.00     0.032 A 
ATOM     25  C   UNL     1     -11.425 205.978 111.943  1.00  0.00     0.032 A 
ATOM     26  C   UNL     1     -12.560 206.906 109.641  1.00  0.00     0.111 A 
ATOM     27  C   UNL     1     -10.701 206.635 110.962  1.00  0.00     0.111 A 
ATOM     28  N   UNL     1     -11.239 207.114 109.824  1.00  0.00    -0.265 NA
ENDBRANCH  20  23
ENDBRANCH  15  16
ENDBRANCH   1  15
TORSDOF 7
ENDMDL
MODEL 9
REMARK minimizedAffinity -7.56655836
REMARK minimizedRMSD -1
REMARK SMILES CCn1c(SCC(=O)Nc2cccc(C(C)=O)c2)nnc1-c1ccncc1
REMARK SMILES IDX 6 1 7 2 9 3 8 5 10 6 18 7 11 8 14 9 12 10 13 11 15 12 17 13
REMARK SMILES IDX 16 14 5 15 4 16 19 17 3 18 20 19 21 20 2 21 1 22 22 23 23 24
REMARK SMILES IDX 27 25 24 26 26 27 25 28
REMARK H PARENT 9 4
REMARK Flexibility Score: inf
ROOT
ATOM      1  C   UNL     1      -9.356 207.380 115.266  1.00  0.00     0.178 C 
ENDROOT
BRANCH   1   2
ATOM      2  C   UNL     1     -10.311 206.518 114.444  1.00  0.00     0.234 C 
ATOM      3  N   UNL     1     -11.286 207.194 113.745  1.00  0.00    -0.325 N 
ATOM      4  H   UNL     1     -11.268 208.202 113.827  1.00  0.00     0.169 HD
ATOM      5  O   UNL     1     -10.176 205.295 114.467  1.00  0.00    -0.274 OA
BRANCH   3   6
ATOM      6  C   UNL     1     -12.318 206.666 112.948  1.00  0.00     0.041 A 
ATOM      7  C   UNL     1     -13.605 206.649 113.502  1.00  0.00     0.038 A 
ATOM      8  C   UNL     1     -12.133 206.158 111.664  1.00  0.00     0.026 A 
ATOM      9  C   UNL     1     -14.696 206.139 112.781  1.00  0.00     0.019 A 
ATOM     10  C   UNL     1     -13.211 205.634 110.946  1.00  0.00     0.003 A 
ATOM     11  C   UNL     1     -14.492 205.621 111.500  1.00  0.00     0.012 A 
BRANCH   9  12
ATOM     12  C   UNL     1     -16.044 206.177 113.421  1.00  0.00     0.159 C 
ATOM     13  O   UNL     1     -16.180 206.684 114.532  1.00  0.00    -0.295 OA
ATOM     14  C   UNL     1     -17.221 205.584 112.691  1.00  0.00     0.093 C 
ENDBRANCH   9  12
ENDBRANCH   3   6
ENDBRANCH   1   2
BRANCH   1  15
ATOM     15  S   UNL     1      -9.584 207.292 117.069  1.00  0.00    -0.076 SA
BRANCH  15  16
ATOM     16  C   UNL     1     -11.258 206.873 117.171  1.00  0.00     0.191 A 
ATOM     17  N   UNL     1     -12.250 207.684 116.902  1.00  0.00    -0.123 NA
ATOM     18  N   UNL     1     -11.742 205.656 117.571  1.00  0.00    -0.302 N 
ATOM     19  N   UNL     1     -13.413 206.985 117.072  1.00  0.00    -0.129 NA
ATOM     20  C   UNL     1     -13.118 205.764 117.488  1.00  0.00     0.164 A 
BRANCH  18  21
ATOM     21  C   UNL     1     -10.972 204.474 117.899  1.00  0.00     0.123 C 
ATOM     22  C   UNL     1     -10.557 204.432 119.360  1.00  0.00     0.028 C 
ENDBRANCH  18  21
BRANCH  20  23
ATOM     23  C   UNL     1     -14.102 204.718 117.727  1.00  0.00     0.022 A 
ATOM     24  C   UNL     1     -14.773 204.157 116.639  1.00  0.00     0.032 A 
ATOM     25  C   UNL     1     -14.434 204.290 119.013  1.00  0.00     0.032 A 
ATOM     26  C   UNL     1     -15.711 203.168 116.877  1.00  0.00     0.111 A 
ATOM     27  C   UNL     1     -15.395 203.302 119.148  1.00  0.00     0.111 A 
ATOM     28  N   UNL     1     -16.029 202.723 118.111  1.00  0.00    -0.265 NA
ENDBRANCH  20  23
ENDBRANCH  15  16
ENDBRANCH   1  15
TORSDOF 7
ENDMDL
