MODEL 1
REMARK minimizedAffinity -8.09132481
REMARK minimizedRMSD -1
REMARK SMILES COc1ccc(C(=O)CSc2nnc(-c3ccc(OC)c(OC)c3)n2-c2ccccc2)cc1
REMARK SMILES IDX 9 1 10 2 11 3 25 4 14 5 12 6 13 7 26 8 27 9 31 10 28 11
REMARK SMILES IDX 30 12 29 13 15 14 24 15 16 16 21 17 17 18 18 19 22 20 23 21
REMARK SMILES IDX 19 22 20 23 7 24 8 25 6 26 5 27 32 28 4 29 33 30 3 31 2 32
REMARK SMILES IDX 1 33
REMARK H PARENT
REMARK Flexibility Score: inf
ROOT
ATOM      1  C   UNL     1     -11.350 205.821 112.124  1.00  0.00     0.159 C 
ENDROOT
BRANCH   1   2
ATOM      2  S   UNL     1     -10.646 207.415 112.634  1.00  0.00    -0.077 SA
BRANCH   2   3
ATOM      3  C   UNL     1     -10.162 207.045 114.259  1.00  0.00     0.196 A 
ATOM      4  N   UNL     1     -11.009 206.830 115.337  1.00  0.00    -0.270 N 
ATOM      5  C   UNL     1     -10.134 206.651 116.414  1.00  0.00     0.169 A 
ATOM      6  N   UNL     1      -8.909 207.049 114.652  1.00  0.00    -0.122 NA
ATOM      7  N   UNL     1      -8.892 206.830 115.997  1.00  0.00    -0.129 NA
BRANCH   4   8
ATOM      8  C   UNL     1     -12.434 206.832 115.373  1.00  0.00     0.050 A 
ATOM      9  C   UNL     1     -13.132 208.049 115.340  1.00  0.00     0.027 A 
ATOM     10  C   UNL     1     -13.153 205.633 115.449  1.00  0.00     0.027 A 
ATOM     11  C   UNL     1     -14.528 208.060 115.374  1.00  0.00     0.002 A 
ATOM     12  C   UNL     1     -14.550 205.652 115.480  1.00  0.00     0.002 A 
ATOM     13  C   UNL     1     -15.236 206.863 115.441  1.00  0.00     0.000 A 
ENDBRANCH   4   8
BRANCH   5  14
ATOM     14  C   UNL     1     -10.470 206.241 117.778  1.00  0.00     0.024 A 
ATOM     15  C   UNL     1      -9.949 205.046 118.285  1.00  0.00     0.062 A 
ATOM     16  C   UNL     1     -11.347 206.988 118.577  1.00  0.00     0.016 A 
ATOM     17  C   UNL     1     -10.286 204.622 119.574  1.00  0.00     0.161 A 
ATOM     18  C   UNL     1     -11.668 206.570 119.876  1.00  0.00     0.051 A 
ATOM     19  C   UNL     1     -11.132 205.387 120.391  1.00  0.00     0.160 A 
BRANCH  17  20
ATOM     20  O   UNL     1      -9.724 203.471 120.067  1.00  0.00    -0.493 OA
ATOM     21  C   UNL     1      -8.357 203.695 120.405  1.00  0.00     0.278 C 
ENDBRANCH  17  20
BRANCH  19  22
ATOM     22  O   UNL     1     -11.381 204.886 121.641  1.00  0.00    -0.493 OA
ATOM     23  C   UNL     1     -12.637 204.252 121.849  1.00  0.00     0.278 C 
ENDBRANCH  19  22
ENDBRANCH   5  14
ENDBRANCH   2   3
ENDBRANCH   1   2
BRANCH   1  24
ATOM     24  C   UNL     1     -12.492 206.065 111.162  1.00  0.00     0.173 C 
ATOM     25  O   UNL     1     -12.297 206.530 110.036  1.00  0.00    -0.293 OA
BRANCH  24  26
ATOM     26  C   UNL     1     -13.890 205.739 111.580  1.00  0.00     0.019 A 
ATOM     27  C   UNL     1     -14.859 206.746 111.499  1.00  0.00     0.015 A 
ATOM     28  C   UNL     1     -14.262 204.478 112.061  1.00  0.00     0.015 A 
ATOM     29  C   UNL     1     -16.180 206.488 111.875  1.00  0.00     0.047 A 
ATOM     30  C   UNL     1     -15.587 204.225 112.440  1.00  0.00     0.047 A 
ATOM     31  C   UNL     1     -16.553 205.228 112.345  1.00  0.00     0.118 A 
BRANCH  31  32
ATOM     32  O   UNL     1     -17.873 205.110 112.679  1.00  0.00    -0.497 OA
ATOM     33  C   UNL     1     -18.727 206.189 112.323  1.00  0.00     0.278 C 
ENDBRANCH  31  32
ENDBRANCH  24  26
ENDBRANCH   1  24
TORSDOF 9
ENDMDL
MODEL 2
REMARK minimizedAffinity -7.83141994
REMARK minimizedRMSD -1
REMARK SMILES COc1ccc(C(=O)CSc2nnc(-c3ccc(OC)c(OC)c3)n2-c2ccccc2)cc1
REMARK SMILES IDX 9 1 10 2 11 3 25 4 14 5 12 6 13 7 26 8 27 9 31 10 28 11
REMARK SMILES IDX 30 12 29 13 15 14 24 15 16 16 21 17 17 18 18 19 22 20 23 21
REMARK SMILES IDX 19 22 20 23 7 24 8 25 6 26 5 27 32 28 4 29 33 30 3 31 2 32
REMARK SMILES IDX 1 33
REMARK H PARENT
REMARK Flexibility Score: inf
ROOT
ATOM      1  C   UNL     1     -15.166 201.359 117.698  1.00  0.00     0.159 C 
ENDROOT
BRANCH   1   2
ATOM      2  S   UNL     1     -15.759 202.999 117.191  1.00  0.00    -0.077 SA
BRANCH   2   3
ATOM      3  C   UNL     1     -14.253 203.801 116.876  1.00  0.00     0.196 A 
ATOM      4  N   UNL     1     -13.934 204.527 115.737  1.00  0.00    -0.270 N 
ATOM      5  C   UNL     1     -12.599 204.893 115.941  1.00  0.00     0.169 A 
ATOM      6  N   UNL     1     -13.205 203.693 117.661  1.00  0.00    -0.122 NA
ATOM      7  N   UNL     1     -12.169 204.350 117.068  1.00  0.00    -0.129 NA
BRANCH   4   8
ATOM      8  C   UNL     1     -14.741 204.808 114.597  1.00  0.00     0.050 A 
ATOM      9  C   UNL     1     -14.726 203.935 113.498  1.00  0.00     0.027 A 
ATOM     10  C   UNL     1     -15.549 205.951 114.551  1.00  0.00     0.027 A 
ATOM     11  C   UNL     1     -15.515 204.203 112.376  1.00  0.00     0.002 A 
ATOM     12  C   UNL     1     -16.337 206.210 113.427  1.00  0.00     0.002 A 
ATOM     13  C   UNL     1     -16.321 205.337 112.342  1.00  0.00     0.000 A 
ENDBRANCH   4   8
BRANCH   5  14
ATOM     14  C   UNL     1     -11.787 205.799 115.128  1.00  0.00     0.024 A 
ATOM     15  C   UNL     1     -11.661 205.565 113.755  1.00  0.00     0.062 A 
ATOM     16  C   UNL     1     -11.085 206.871 115.697  1.00  0.00     0.016 A 
ATOM     17  C   UNL     1     -10.862 206.400 112.969  1.00  0.00     0.161 A 
ATOM     18  C   UNL     1     -10.301 207.719 114.903  1.00  0.00     0.051 A 
ATOM     19  C   UNL     1     -10.190 207.497 113.528  1.00  0.00     0.160 A 
BRANCH  17  20
ATOM     20  O   UNL     1     -10.792 206.178 111.616  1.00  0.00    -0.493 OA
ATOM     21  C   UNL     1     -12.087 206.289 111.030  1.00  0.00     0.278 C 
ENDBRANCH  17  20
BRANCH  19  22
ATOM     22  O   UNL     1      -9.449 208.259 112.663  1.00  0.00    -0.493 OA
ATOM     23  C   UNL     1      -8.102 208.531 113.026  1.00  0.00     0.278 C 
ENDBRANCH  19  22
ENDBRANCH   5  14
ENDBRANCH   2   3
ENDBRANCH   1   2
BRANCH   1  24
ATOM     24  C   UNL     1     -16.344 200.518 118.137  1.00  0.00     0.173 C 
ATOM     25  O   UNL     1     -16.374 199.301 117.940  1.00  0.00    -0.293 OA
BRANCH  24  26
ATOM     26  C   UNL     1     -17.500 201.170 118.826  1.00  0.00     0.019 A 
ATOM     27  C   UNL     1     -17.464 201.280 120.221  1.00  0.00     0.015 A 
ATOM     28  C   UNL     1     -18.615 201.660 118.136  1.00  0.00     0.015 A 
ATOM     29  C   UNL     1     -18.519 201.886 120.910  1.00  0.00     0.047 A 
ATOM     30  C   UNL     1     -19.672 202.263 118.832  1.00  0.00     0.047 A 
ATOM     31  C   UNL     1     -19.626 202.381 120.221  1.00  0.00     0.118 A 
BRANCH  31  32
ATOM     32  O   UNL     1     -20.585 202.947 121.013  1.00  0.00    -0.497 OA
ATOM     33  C   UNL     1     -20.683 204.365 120.995  1.00  0.00     0.278 C 
ENDBRANCH  31  32
ENDBRANCH  24  26
ENDBRANCH   1  24
TORSDOF 9
ENDMDL
MODEL 3
REMARK minimizedAffinity -7.8050971
REMARK minimizedRMSD -1
REMARK SMILES COc1ccc(C(=O)CSc2nnc(-c3ccc(OC)c(OC)c3)n2-c2ccccc2)cc1
REMARK SMILES IDX 9 1 10 2 11 3 25 4 14 5 12 6 13 7 26 8 27 9 31 10 28 11
REMARK SMILES IDX 30 12 29 13 15 14 24 15 16 16 21 17 17 18 18 19 22 20 23 21
REMARK SMILES IDX 19 22 20 23 7 24 8 25 6 26 5 27 32 28 4 29 33 30 3 31 2 32
REMARK SMILES IDX 1 33
REMARK H PARENT
REMARK Flexibility Score: inf
ROOT
ATOM      1  C   UNL     1     -15.170 201.364 117.809  1.00  0.00     0.159 C 
ENDROOT
BRANCH   1   2
ATOM      2  S   UNL     1     -15.686 202.990 117.186  1.00  0.00    -0.077 SA
BRANCH   2   3
ATOM      3  C   UNL     1     -14.143 203.698 116.825  1.00  0.00     0.196 A 
ATOM      4  N   UNL     1     -13.814 204.400 115.674  1.00  0.00    -0.270 N 
ATOM      5  C   UNL     1     -12.454 204.685 115.839  1.00  0.00     0.169 A 
ATOM      6  N   UNL     1     -13.082 203.529 117.581  1.00  0.00    -0.122 NA
ATOM      7  N   UNL     1     -12.025 204.120 116.956  1.00  0.00    -0.129 NA
BRANCH   4   8
ATOM      8  C   UNL     1     -14.634 204.726 114.555  1.00  0.00     0.050 A 
ATOM      9  C   UNL     1     -15.375 205.918 114.556  1.00  0.00     0.027 A 
ATOM     10  C   UNL     1     -14.720 203.868 113.452  1.00  0.00     0.027 A 
ATOM     11  C   UNL     1     -16.181 206.246 113.464  1.00  0.00     0.002 A 
ATOM     12  C   UNL     1     -15.527 204.204 112.362  1.00  0.00     0.002 A 
ATOM     13  C   UNL     1     -16.254 205.391 112.367  1.00  0.00     0.000 A 
ENDBRANCH   4   8
BRANCH   5  14
ATOM     14  C   UNL     1     -11.612 205.537 114.999  1.00  0.00     0.024 A 
ATOM     15  C   UNL     1     -10.878 206.573 115.586  1.00  0.00     0.062 A 
ATOM     16  C   UNL     1     -11.560 205.379 113.606  1.00  0.00     0.016 A 
ATOM     17  C   UNL     1     -10.095 207.418 114.794  1.00  0.00     0.161 A 
ATOM     18  C   UNL     1     -10.759 206.216 112.817  1.00  0.00     0.051 A 
ATOM     19  C   UNL     1     -10.010 207.238 113.405  1.00  0.00     0.160 A 
BRANCH  17  20
ATOM     20  O   UNL     1      -9.347 208.397 115.400  1.00  0.00    -0.493 OA
ATOM     21  C   UNL     1      -8.321 207.811 116.198  1.00  0.00     0.278 C 
ENDBRANCH  17  20
BRANCH  19  22
ATOM     22  O   UNL     1      -9.201 208.112 112.730  1.00  0.00    -0.493 OA
ATOM     23  C   UNL     1      -7.880 207.679 112.434  1.00  0.00     0.278 C 
ENDBRANCH  19  22
ENDBRANCH   5  14
ENDBRANCH   2   3
ENDBRANCH   1   2
BRANCH   1  24
ATOM     24  C   UNL     1     -16.399 200.527 118.092  1.00  0.00     0.173 C 
ATOM     25  O   UNL     1     -16.426 199.320 117.840  1.00  0.00    -0.293 OA
BRANCH  24  26
ATOM     26  C   UNL     1     -17.608 201.171 118.690  1.00  0.00     0.019 A 
ATOM     27  C   UNL     1     -17.716 201.212 120.086  1.00  0.00     0.015 A 
ATOM     28  C   UNL     1     -18.636 201.719 117.915  1.00  0.00     0.015 A 
ATOM     29  C   UNL     1     -18.826 201.807 120.692  1.00  0.00     0.047 A 
ATOM     30  C   UNL     1     -19.749 202.312 118.527  1.00  0.00     0.047 A 
ATOM     31  C   UNL     1     -19.846 202.362 119.918  1.00  0.00     0.118 A 
BRANCH  31  32
ATOM     32  O   UNL     1     -20.872 202.910 120.635  1.00  0.00    -0.497 OA
ATOM     33  C   UNL     1     -20.665 204.213 121.165  1.00  0.00     0.278 C 
ENDBRANCH  31  32
ENDBRANCH  24  26
ENDBRANCH   1  24
TORSDOF 9
ENDMDL
MODEL 4
REMARK minimizedAffinity -7.34853029
REMARK minimizedRMSD -1
REMARK SMILES COc1ccc(C(=O)CSc2nnc(-c3ccc(OC)c(OC)c3)n2-c2ccccc2)cc1
REMARK SMILES IDX 9 1 10 2 11 3 25 4 14 5 12 6 13 7 26 8 27 9 31 10 28 11
REMARK SMILES IDX 30 12 29 13 15 14 24 15 16 16 21 17 17 18 18 19 22 20 23 21
REMARK SMILES IDX 19 22 20 23 7 24 8 25 6 26 5 27 32 28 4 29 33 30 3 31 2 32
REMARK SMILES IDX 1 33
REMARK H PARENT
REMARK Flexibility Score: inf
ROOT
ATOM      1  C   UNL     1     -15.834 205.607 115.750  1.00  0.00     0.159 C 
ENDROOT
BRANCH   1   2
ATOM      2  S   UNL     1     -15.262 203.970 116.288  1.00  0.00    -0.077 SA
BRANCH   2   3
ATOM      3  C   UNL     1     -13.986 204.418 117.375  1.00  0.00     0.196 A 
ATOM      4  N   UNL     1     -12.799 205.049 117.028  1.00  0.00    -0.270 N 
ATOM      5  C   UNL     1     -12.095 205.113 118.236  1.00  0.00     0.169 A 
ATOM      6  N   UNL     1     -13.977 204.088 118.646  1.00  0.00    -0.122 NA
ATOM      7  N   UNL     1     -12.791 204.497 119.177  1.00  0.00    -0.129 NA
BRANCH   4   8
ATOM      8  C   UNL     1     -12.358 205.492 115.747  1.00  0.00     0.050 A 
ATOM      9  C   UNL     1     -12.642 206.800 115.326  1.00  0.00     0.027 A 
ATOM     10  C   UNL     1     -11.650 204.637 114.895  1.00  0.00     0.027 A 
ATOM     11  C   UNL     1     -12.213 207.244 114.072  1.00  0.00     0.002 A 
ATOM     12  C   UNL     1     -11.222 205.089 113.644  1.00  0.00     0.002 A 
ATOM     13  C   UNL     1     -11.502 206.390 113.234  1.00  0.00     0.000 A 
ENDBRANCH   4   8
BRANCH   5  14
ATOM     14  C   UNL     1     -10.836 205.813 118.499  1.00  0.00     0.024 A 
ATOM     15  C   UNL     1      -9.655 205.076 118.632  1.00  0.00     0.062 A 
ATOM     16  C   UNL     1     -10.789 207.203 118.676  1.00  0.00     0.016 A 
ATOM     17  C   UNL     1      -8.450 205.725 118.917  1.00  0.00     0.161 A 
ATOM     18  C   UNL     1      -9.575 207.852 118.942  1.00  0.00     0.051 A 
ATOM     19  C   UNL     1      -8.392 207.120 119.056  1.00  0.00     0.160 A 
BRANCH  17  20
ATOM     20  O   UNL     1      -7.295 204.985 118.996  1.00  0.00    -0.493 OA
ATOM     21  C   UNL     1      -7.433 203.959 119.975  1.00  0.00     0.278 C 
ENDBRANCH  17  20
BRANCH  19  22
ATOM     22  O   UNL     1      -7.157 207.651 119.317  1.00  0.00    -0.493 OA
ATOM     23  C   UNL     1      -6.430 208.180 118.216  1.00  0.00     0.278 C 
ENDBRANCH  19  22
ENDBRANCH   5  14
ENDBRANCH   2   3
ENDBRANCH   1   2
BRANCH   1  24
ATOM     24  C   UNL     1     -16.493 205.483 114.393  1.00  0.00     0.173 C 
ATOM     25  O   UNL     1     -17.717 205.375 114.281  1.00  0.00    -0.293 OA
BRANCH  24  26
ATOM     26  C   UNL     1     -15.648 205.492 113.160  1.00  0.00     0.019 A 
ATOM     27  C   UNL     1     -15.496 206.700 112.469  1.00  0.00     0.015 A 
ATOM     28  C   UNL     1     -15.020 204.343 112.664  1.00  0.00     0.015 A 
ATOM     29  C   UNL     1     -14.712 206.759 111.313  1.00  0.00     0.047 A 
ATOM     30  C   UNL     1     -14.239 204.407 111.502  1.00  0.00     0.047 A 
ATOM     31  C   UNL     1     -14.079 205.616 110.824  1.00  0.00     0.118 A 
BRANCH  31  32
ATOM     32  O   UNL     1     -13.345 205.811 109.687  1.00  0.00    -0.497 OA
ATOM     33  C   UNL     1     -12.601 207.019 109.600  1.00  0.00     0.278 C 
ENDBRANCH  31  32
ENDBRANCH  24  26
ENDBRANCH   1  24
TORSDOF 9
ENDMDL
MODEL 5
REMARK minimizedAffinity -7.13721752
REMARK minimizedRMSD -1
REMARK SMILES COc1ccc(C(=O)CSc2nnc(-c3ccc(OC)c(OC)c3)n2-c2ccccc2)cc1
REMARK SMILES IDX 9 1 10 2 11 3 25 4 14 5 12 6 13 7 26 8 27 9 31 10 28 11
REMARK SMILES IDX 30 12 29 13 15 14 24 15 16 16 21 17 17 18 18 19 22 20 23 21
REMARK SMILES IDX 19 22 20 23 7 24 8 25 6 26 5 27 32 28 4 29 33 30 3 31 2 32
REMARK SMILES IDX 1 33
REMARK H PARENT
REMARK Flexibility Score: inf
ROOT
ATOM      1  C   UNL     1     -15.170 205.401 115.701  1.00  0.00     0.159 C 
ENDROOT
BRANCH   1   2
ATOM      2  S   UNL     1     -14.806 207.038 116.397  1.00  0.00    -0.077 SA
BRANCH   2   3
ATOM      3  C   UNL     1     -13.726 206.606 117.684  1.00  0.00     0.196 A 
ATOM      4  N   UNL     1     -12.393 206.244 117.547  1.00  0.00    -0.270 N 
ATOM      5  C   UNL     1     -12.003 205.923 118.852  1.00  0.00     0.169 A 
ATOM      6  N   UNL     1     -14.115 206.467 118.931  1.00  0.00    -0.122 NA
ATOM      7  N   UNL     1     -13.051 206.017 119.654  1.00  0.00    -0.129 NA
BRANCH   4   8
ATOM      8  C   UNL     1     -11.601 206.165 116.365  1.00  0.00     0.050 A 
ATOM      9  C   UNL     1     -11.107 207.340 115.775  1.00  0.00     0.027 A 
ATOM     10  C   UNL     1     -11.311 204.930 115.775  1.00  0.00     0.027 A 
ATOM     11  C   UNL     1     -10.329 207.272 114.618  1.00  0.00     0.002 A 
ATOM     12  C   UNL     1     -10.530 204.870 114.618  1.00  0.00     0.002 A 
ATOM     13  C   UNL     1     -10.038 206.038 114.042  1.00  0.00     0.000 A 
ENDBRANCH   4   8
BRANCH   5  14
ATOM     14  C   UNL     1     -10.654 205.617 119.331  1.00  0.00     0.024 A 
ATOM     15  C   UNL     1      -9.669 206.609 119.294  1.00  0.00     0.062 A 
ATOM     16  C   UNL     1     -10.304 204.334 119.778  1.00  0.00     0.016 A 
ATOM     17  C   UNL     1      -8.367 206.324 119.715  1.00  0.00     0.161 A 
ATOM     18  C   UNL     1      -9.002 204.057 120.218  1.00  0.00     0.051 A 
ATOM     19  C   UNL     1      -8.023 205.053 120.200  1.00  0.00     0.160 A 
BRANCH  17  20
ATOM     20  O   UNL     1      -7.430 207.328 119.715  1.00  0.00    -0.493 OA
ATOM     21  C   UNL     1      -7.298 207.879 118.406  1.00  0.00     0.278 C 
ENDBRANCH  17  20
BRANCH  19  22
ATOM     22  O   UNL     1      -6.724 204.890 120.602  1.00  0.00    -0.493 OA
ATOM     23  C   UNL     1      -5.866 204.149 119.744  1.00  0.00     0.278 C 
ENDBRANCH  19  22
ENDBRANCH   5  14
ENDBRANCH   2   3
ENDBRANCH   1   2
BRANCH   1  24
ATOM     24  C   UNL     1     -15.915 205.569 114.395  1.00  0.00     0.173 C 
ATOM     25  O   UNL     1     -17.147 205.522 114.347  1.00  0.00    -0.293 OA
BRANCH  24  26
ATOM     26  C   UNL     1     -15.147 205.798 113.133  1.00  0.00     0.019 A 
ATOM     27  C   UNL     1     -13.760 205.962 113.222  1.00  0.00     0.015 A 
ATOM     28  C   UNL     1     -15.759 205.869 111.876  1.00  0.00     0.015 A 
ATOM     29  C   UNL     1     -12.998 206.175 112.069  1.00  0.00     0.047 A 
ATOM     30  C   UNL     1     -14.991 206.086 110.724  1.00  0.00     0.047 A 
ATOM     31  C   UNL     1     -13.607 206.236 110.815  1.00  0.00     0.118 A 
BRANCH  31  32
ATOM     32  O   UNL     1     -12.749 206.449 109.773  1.00  0.00    -0.497 OA
ATOM     33  C   UNL     1     -11.422 206.840 110.100  1.00  0.00     0.278 C 
ENDBRANCH  31  32
ENDBRANCH  24  26
ENDBRANCH   1  24
TORSDOF 9
ENDMDL
MODEL 6
REMARK minimizedAffinity -7.03117132
REMARK minimizedRMSD -1
REMARK SMILES COc1ccc(C(=O)CSc2nnc(-c3ccc(OC)c(OC)c3)n2-c2ccccc2)cc1
REMARK SMILES IDX 9 1 10 2 11 3 25 4 14 5 12 6 13 7 26 8 27 9 31 10 28 11
REMARK SMILES IDX 30 12 29 13 15 14 24 15 16 16 21 17 17 18 18 19 22 20 23 21
REMARK SMILES IDX 19 22 20 23 7 24 8 25 6 26 5 27 32 28 4 29 33 30 3 31 2 32
REMARK SMILES IDX 1 33
REMARK H PARENT
REMARK Flexibility Score: inf
ROOT
ATOM      1  C   UNL     1     -16.140 202.556 119.111  1.00  0.00     0.159 C 
ENDROOT
BRANCH   1   2
ATOM      2  S   UNL     1     -14.687 203.625 118.907  1.00  0.00    -0.077 SA
BRANCH   2   3
ATOM      3  C   UNL     1     -14.690 203.845 117.186  1.00  0.00     0.196 A 
ATOM      4  N   UNL     1     -13.796 204.618 116.458  1.00  0.00    -0.270 N 
ATOM      5  C   UNL     1     -14.272 204.524 115.145  1.00  0.00     0.169 A 
ATOM      6  N   UNL     1     -15.636 203.377 116.405  1.00  0.00    -0.122 NA
ATOM      7  N   UNL     1     -15.392 203.820 115.140  1.00  0.00    -0.129 NA
BRANCH   4   8
ATOM      8  C   UNL     1     -12.680 205.375 116.919  1.00  0.00     0.050 A 
ATOM      9  C   UNL     1     -11.473 204.727 117.222  1.00  0.00     0.027 A 
ATOM     10  C   UNL     1     -12.771 206.763 117.084  1.00  0.00     0.027 A 
ATOM     11  C   UNL     1     -10.374 205.461 117.673  1.00  0.00     0.002 A 
ATOM     12  C   UNL     1     -11.667 207.490 117.534  1.00  0.00     0.002 A 
ATOM     13  C   UNL     1     -10.470 206.841 117.826  1.00  0.00     0.000 A 
ENDBRANCH   4   8
BRANCH   5  14
ATOM     14  C   UNL     1     -13.633 205.021 113.926  1.00  0.00     0.024 A 
ATOM     15  C   UNL     1     -14.427 205.465 112.864  1.00  0.00     0.062 A 
ATOM     16  C   UNL     1     -12.239 205.016 113.770  1.00  0.00     0.016 A 
ATOM     17  C   UNL     1     -13.834 205.911 111.680  1.00  0.00     0.161 A 
ATOM     18  C   UNL     1     -11.647 205.483 112.588  1.00  0.00     0.051 A 
ATOM     19  C   UNL     1     -12.439 205.944 111.535  1.00  0.00     0.160 A 
BRANCH  17  20
ATOM     20  O   UNL     1     -14.634 206.386 110.670  1.00  0.00    -0.493 OA
ATOM     21  C   UNL     1     -15.976 206.530 111.130  1.00  0.00     0.278 C 
ENDBRANCH  17  20
BRANCH  19  22
ATOM     22  O   UNL     1     -11.965 206.416 110.339  1.00  0.00    -0.493 OA
ATOM     23  C   UNL     1     -10.569 206.663 110.245  1.00  0.00     0.278 C 
ENDBRANCH  19  22
ENDBRANCH   5  14
ENDBRANCH   2   3
ENDBRANCH   1   2
BRANCH   1  24
ATOM     24  C   UNL     1     -16.581 202.586 120.559  1.00  0.00     0.173 C 
ATOM     25  O   UNL     1     -15.769 202.470 121.480  1.00  0.00    -0.293 OA
BRANCH  24  26
ATOM     26  C   UNL     1     -18.030 202.758 120.884  1.00  0.00     0.019 A 
ATOM     27  C   UNL     1     -18.880 201.657 120.730  1.00  0.00     0.015 A 
ATOM     28  C   UNL     1     -18.569 203.975 121.319  1.00  0.00     0.015 A 
ATOM     29  C   UNL     1     -20.242 201.768 121.025  1.00  0.00     0.047 A 
ATOM     30  C   UNL     1     -19.935 204.082 121.610  1.00  0.00     0.047 A 
ATOM     31  C   UNL     1     -20.777 202.979 121.468  1.00  0.00     0.118 A 
BRANCH  31  32
ATOM     32  O   UNL     1     -22.120 202.951 121.719  1.00  0.00    -0.497 OA
ATOM     33  C   UNL     1     -22.602 201.892 122.536  1.00  0.00     0.278 C 
ENDBRANCH  31  32
ENDBRANCH  24  26
ENDBRANCH   1  24
TORSDOF 9
ENDMDL
MODEL 7
REMARK minimizedAffinity -7.00500393
REMARK minimizedRMSD -1
REMARK SMILES COc1ccc(C(=O)CSc2nnc(-c3ccc(OC)c(OC)c3)n2-c2ccccc2)cc1
REMARK SMILES IDX 9 1 10 2 11 3 25 4 14 5 12 6 13 7 26 8 27 9 31 10 28 11
REMARK SMILES IDX 30 12 29 13 15 14 24 15 16 16 21 17 17 18 18 19 22 20 23 21
REMARK SMILES IDX 19 22 20 23 7 24 8 25 6 26 5 27 32 28 4 29 33 30 3 31 2 32
REMARK SMILES IDX 1 33
REMARK H PARENT
REMARK Flexibility Score: inf
ROOT
ATOM      1  C   UNL     1      -9.262 207.009 115.666  1.00  0.00     0.159 C 
ENDROOT
BRANCH   1   2
ATOM      2  S   UNL     1     -10.632 208.187 115.848  1.00  0.00    -0.077 SA
BRANCH   2   3
ATOM      3  C   UNL     1     -11.225 207.748 117.418  1.00  0.00     0.196 A 
ATOM      4  N   UNL     1     -12.474 207.211 117.700  1.00  0.00    -0.270 N 
ATOM      5  C   UNL     1     -12.483 207.113 119.096  1.00  0.00     0.169 A 
ATOM      6  N   UNL     1     -10.571 208.000 118.529  1.00  0.00    -0.122 NA
ATOM      7  N   UNL     1     -11.363 207.629 119.574  1.00  0.00    -0.129 NA
BRANCH   4   8
ATOM      8  C   UNL     1     -13.529 206.873 116.804  1.00  0.00     0.050 A 
ATOM      9  C   UNL     1     -14.210 207.887 116.112  1.00  0.00     0.027 A 
ATOM     10  C   UNL     1     -13.906 205.539 116.607  1.00  0.00     0.027 A 
ATOM     11  C   UNL     1     -15.245 207.565 115.231  1.00  0.00     0.002 A 
ATOM     12  C   UNL     1     -14.941 205.225 115.722  1.00  0.00     0.002 A 
ATOM     13  C   UNL     1     -15.608 206.235 115.035  1.00  0.00     0.000 A 
ENDBRANCH   4   8
BRANCH   5  14
ATOM     14  C   UNL     1     -13.494 206.474 119.940  1.00  0.00     0.024 A 
ATOM     15  C   UNL     1     -13.662 205.087 119.880  1.00  0.00     0.062 A 
ATOM     16  C   UNL     1     -14.339 207.221 120.772  1.00  0.00     0.016 A 
ATOM     17  C   UNL     1     -14.646 204.463 120.653  1.00  0.00     0.161 A 
ATOM     18  C   UNL     1     -15.311 206.590 121.561  1.00  0.00     0.051 A 
ATOM     19  C   UNL     1     -15.467 205.203 121.517  1.00  0.00     0.160 A 
BRANCH  17  20
ATOM     20  O   UNL     1     -14.760 203.095 120.612  1.00  0.00    -0.493 OA
ATOM     21  C   UNL     1     -15.472 202.694 119.444  1.00  0.00     0.278 C 
ENDBRANCH  17  20
BRANCH  19  22
ATOM     22  O   UNL     1     -16.385 204.489 122.240  1.00  0.00    -0.493 OA
ATOM     23  C   UNL     1     -17.751 204.621 121.869  1.00  0.00     0.278 C 
ENDBRANCH  19  22
ENDBRANCH   5  14
ENDBRANCH   2   3
ENDBRANCH   1   2
BRANCH   1  24
ATOM     24  C   UNL     1      -9.158 206.585 114.218  1.00  0.00     0.173 C 
ATOM     25  O   UNL     1      -8.077 206.583 113.624  1.00  0.00    -0.293 OA
BRANCH  24  26
ATOM     26  C   UNL     1     -10.390 206.158 113.485  1.00  0.00     0.019 A 
ATOM     27  C   UNL     1     -10.659 206.743 112.242  1.00  0.00     0.015 A 
ATOM     28  C   UNL     1     -11.286 205.213 113.998  1.00  0.00     0.015 A 
ATOM     29  C   UNL     1     -11.795 206.373 111.518  1.00  0.00     0.047 A 
ATOM     30  C   UNL     1     -12.427 204.848 113.270  1.00  0.00     0.047 A 
ATOM     31  C   UNL     1     -12.684 205.424 112.025  1.00  0.00     0.118 A 
BRANCH  31  32
ATOM     32  O   UNL     1     -13.754 205.155 111.218  1.00  0.00    -0.497 OA
ATOM     33  C   UNL     1     -14.188 206.197 110.354  1.00  0.00     0.278 C 
ENDBRANCH  31  32
ENDBRANCH  24  26
ENDBRANCH   1  24
TORSDOF 9
ENDMDL
MODEL 8
REMARK minimizedAffinity -6.8935976
REMARK minimizedRMSD -1
REMARK SMILES COc1ccc(C(=O)CSc2nnc(-c3ccc(OC)c(OC)c3)n2-c2ccccc2)cc1
REMARK SMILES IDX 9 1 10 2 11 3 25 4 14 5 12 6 13 7 26 8 27 9 31 10 28 11
REMARK SMILES IDX 30 12 29 13 15 14 24 15 16 16 21 17 17 18 18 19 22 20 23 21
REMARK SMILES IDX 19 22 20 23 7 24 8 25 6 26 5 27 32 28 4 29 33 30 3 31 2 32
REMARK SMILES IDX 1 33
REMARK H PARENT
REMARK Flexibility Score: inf
ROOT
ATOM      1  C   UNL     1     -11.726 206.928 114.242  1.00  0.00     0.159 C 
ENDROOT
BRANCH   1   2
ATOM      2  S   UNL     1     -10.943 205.576 115.167  1.00  0.00    -0.077 SA
BRANCH   2   3
ATOM      3  C   UNL     1     -11.235 206.093 116.798  1.00  0.00     0.196 A 
ATOM      4  N   UNL     1     -12.308 205.719 117.595  1.00  0.00    -0.270 N 
ATOM      5  C   UNL     1     -12.121 206.459 118.768  1.00  0.00     0.169 A 
ATOM      6  N   UNL     1     -10.507 207.003 117.403  1.00  0.00    -0.122 NA
ATOM      7  N   UNL     1     -11.072 207.250 118.618  1.00  0.00    -0.129 NA
BRANCH   4   8
ATOM      8  C   UNL     1     -13.382 204.830 117.297  1.00  0.00     0.050 A 
ATOM      9  C   UNL     1     -13.225 203.451 117.503  1.00  0.00     0.027 A 
ATOM     10  C   UNL     1     -14.595 205.313 116.792  1.00  0.00     0.027 A 
ATOM     11  C   UNL     1     -14.272 202.573 117.215  1.00  0.00     0.002 A 
ATOM     12  C   UNL     1     -15.639 204.429 116.508  1.00  0.00     0.002 A 
ATOM     13  C   UNL     1     -15.478 203.062 116.721  1.00  0.00     0.000 A 
ENDBRANCH   4   8
BRANCH   5  14
ATOM     14  C   UNL     1     -12.871 206.352 120.020  1.00  0.00     0.024 A 
ATOM     15  C   UNL     1     -12.377 205.546 121.051  1.00  0.00     0.062 A 
ATOM     16  C   UNL     1     -14.104 206.995 120.197  1.00  0.00     0.016 A 
ATOM     17  C   UNL     1     -13.098 205.406 122.241  1.00  0.00     0.161 A 
ATOM     18  C   UNL     1     -14.815 206.868 121.399  1.00  0.00     0.051 A 
ATOM     19  C   UNL     1     -14.313 206.079 122.437  1.00  0.00     0.160 A 
BRANCH  17  20
ATOM     20  O   UNL     1     -12.569 204.648 123.256  1.00  0.00    -0.493 OA
ATOM     21  C   UNL     1     -12.114 203.395 122.751  1.00  0.00     0.278 C 
ENDBRANCH  17  20
BRANCH  19  22
ATOM     22  O   UNL     1     -14.925 205.884 123.646  1.00  0.00    -0.493 OA
ATOM     23  C   UNL     1     -16.293 205.494 123.628  1.00  0.00     0.278 C 
ENDBRANCH  19  22
ENDBRANCH   5  14
ENDBRANCH   2   3
ENDBRANCH   1   2
BRANCH   1  24
ATOM     24  C   UNL     1     -12.273 206.388 112.938  1.00  0.00     0.173 C 
ATOM     25  O   UNL     1     -11.524 206.019 112.031  1.00  0.00    -0.293 OA
BRANCH  24  26
ATOM     26  C   UNL     1     -13.753 206.298 112.741  1.00  0.00     0.019 A 
ATOM     27  C   UNL     1     -14.587 206.831 113.731  1.00  0.00     0.015 A 
ATOM     28  C   UNL     1     -14.332 205.692 111.621  1.00  0.00     0.015 A 
ATOM     29  C   UNL     1     -15.977 206.774 113.590  1.00  0.00     0.047 A 
ATOM     30  C   UNL     1     -15.726 205.633 111.486  1.00  0.00     0.047 A 
ATOM     31  C   UNL     1     -16.554 206.178 112.468  1.00  0.00     0.118 A 
BRANCH  31  32
ATOM     32  O   UNL     1     -17.920 206.188 112.455  1.00  0.00    -0.497 OA
ATOM     33  C   UNL     1     -18.550 207.049 111.516  1.00  0.00     0.278 C 
ENDBRANCH  31  32
ENDBRANCH  24  26
ENDBRANCH   1  24
TORSDOF 9
ENDMDL
MODEL 9
REMARK minimizedAffinity -6.8812232
REMARK minimizedRMSD -1
REMARK SMILES COc1ccc(C(=O)CSc2nnc(-c3ccc(OC)c(OC)c3)n2-c2ccccc2)cc1
REMARK SMILES IDX 9 1 10 2 11 3 25 4 14 5 12 6 13 7 26 8 27 9 31 10 28 11
REMARK SMILES IDX 30 12 29 13 15 14 24 15 16 16 21 17 17 18 18 19 22 20 23 21
REMARK SMILES IDX 19 22 20 23 7 24 8 25 6 26 5 27 32 28 4 29 33 30 3 31 2 32
REMARK SMILES IDX 1 33
REMARK H PARENT
REMARK Flexibility Score: inf
ROOT
ATOM      1  C   UNL     1     -11.394 207.032 113.229  1.00  0.00     0.159 C 
ENDROOT
BRANCH   1   2
ATOM      2  S   UNL     1     -11.216 205.237 113.021  1.00  0.00    -0.077 SA
BRANCH   2   3
ATOM      3  C   UNL     1     -11.764 204.680 114.570  1.00  0.00     0.196 A 
ATOM      4  N   UNL     1     -13.085 204.574 114.982  1.00  0.00    -0.270 N 
ATOM      5  C   UNL     1     -12.983 204.158 116.314  1.00  0.00     0.169 A 
ATOM      6  N   UNL     1     -10.949 204.409 115.564  1.00  0.00    -0.122 NA
ATOM      7  N   UNL     1     -11.706 204.109 116.656  1.00  0.00    -0.129 NA
BRANCH   4   8
ATOM      8  C   UNL     1     -14.278 204.860 114.256  1.00  0.00     0.050 A 
ATOM      9  C   UNL     1     -15.038 205.994 114.580  1.00  0.00     0.027 A 
ATOM     10  C   UNL     1     -14.709 204.019 113.223  1.00  0.00     0.027 A 
ATOM     11  C   UNL     1     -16.207 206.282 113.872  1.00  0.00     0.002 A 
ATOM     12  C   UNL     1     -15.879 204.315 112.518  1.00  0.00     0.002 A 
ATOM     13  C   UNL     1     -16.625 205.446 112.841  1.00  0.00     0.000 A 
ENDBRANCH   4   8
BRANCH   5  14
ATOM     14  C   UNL     1     -14.068 203.741 117.205  1.00  0.00     0.024 A 
ATOM     15  C   UNL     1     -14.112 204.234 118.512  1.00  0.00     0.062 A 
ATOM     16  C   UNL     1     -15.040 202.816 116.799  1.00  0.00     0.016 A 
ATOM     17  C   UNL     1     -15.120 203.821 119.387  1.00  0.00     0.161 A 
ATOM     18  C   UNL     1     -16.062 202.418 117.672  1.00  0.00     0.051 A 
ATOM     19  C   UNL     1     -16.118 202.925 118.972  1.00  0.00     0.160 A 
BRANCH  17  20
ATOM     20  O   UNL     1     -15.169 204.355 120.651  1.00  0.00    -0.493 OA
ATOM     21  C   UNL     1     -14.092 203.856 121.440  1.00  0.00     0.278 C 
ENDBRANCH  17  20
BRANCH  19  22
ATOM     22  O   UNL     1     -17.067 202.602 119.905  1.00  0.00    -0.493 OA
ATOM     23  C   UNL     1     -17.479 201.242 119.971  1.00  0.00     0.278 C 
ENDBRANCH  19  22
ENDBRANCH   5  14
ENDBRANCH   2   3
ENDBRANCH   1   2
BRANCH   1  24
ATOM     24  C   UNL     1     -10.286 207.733 112.474  1.00  0.00     0.173 C 
ATOM     25  O   UNL     1     -10.431 208.088 111.301  1.00  0.00    -0.293 OA
BRANCH  24  26
ATOM     26  C   UNL     1      -8.986 208.006 113.159  1.00  0.00     0.019 A 
ATOM     27  C   UNL     1      -8.982 208.885 114.249  1.00  0.00     0.015 A 
ATOM     28  C   UNL     1      -7.778 207.432 112.747  1.00  0.00     0.015 A 
ATOM     29  C   UNL     1      -7.791 209.167 114.925  1.00  0.00     0.047 A 
ATOM     30  C   UNL     1      -6.586 207.721 113.426  1.00  0.00     0.047 A 
ATOM     31  C   UNL     1      -6.589 208.588 114.519  1.00  0.00     0.118 A 
BRANCH  31  32
ATOM     32  O   UNL     1      -5.501 208.949 115.264  1.00  0.00    -0.497 OA
ATOM     33  C   UNL     1      -5.630 210.111 116.073  1.00  0.00     0.278 C 
ENDBRANCH  31  32
ENDBRANCH  24  26
ENDBRANCH   1  24
TORSDOF 9
ENDMDL
