MODEL 1
REMARK minimizedAffinity -9.44867706
REMARK minimizedRMSD -1
REMARK SMILES Cc1c(NC(=O)[C@@H]2CCCN2S(=O)(=O)c2ccccc2)c(=O)n(-c2ccccc2)n1C
REMARK SMILES IDX 7 1 11 2 10 3 9 4 8 5 5 6 4 7 6 9 3 10 23 11 30 12 21 13
REMARK SMILES IDX 2 14 31 15 22 16 1 17 24 18 25 19 29 20 26 21 28 22 27 23
REMARK SMILES IDX 12 24 13 25 14 26 15 27 16 28 20 29 17 30 19 31 18 32
REMARK H PARENT 4 8
REMARK Flexibility Score: inf
ROOT
ATOM      1  C   UNL     1     -10.679 206.227 113.937  1.00  0.00     0.162 C 
ATOM      2  N   UNL     1     -11.319 206.933 112.783  1.00  0.00    -0.185 NA
ATOM      3  C   UNL     1     -10.375 207.966 112.287  1.00  0.00     0.103 C 
ATOM      4  C   UNL     1      -9.054 207.661 112.973  1.00  0.00     0.019 C 
ATOM      5  C   UNL     1      -9.490 207.110 114.314  1.00  0.00     0.032 C 
ENDROOT
BRANCH   1   6
ATOM      6  C   UNL     1     -11.644 206.086 115.116  1.00  0.00     0.243 C 
ATOM      7  N   UNL     1     -12.114 204.790 115.275  1.00  0.00    -0.319 N 
ATOM      8  H   UNL     1     -11.998 204.175 114.484  1.00  0.00     0.170 HD
ATOM      9  O   UNL     1     -11.978 207.056 115.787  1.00  0.00    -0.273 OA
BRANCH   7  10
ATOM     10  C   UNL     1     -12.942 204.336 116.272  1.00  0.00     0.130 C 
ATOM     11  N   UNL     1     -14.711 203.384 117.435  1.00  0.00    -0.216 N 
ATOM     12  N   UNL     1     -13.703 203.767 118.363  1.00  0.00    -0.283 N 
ATOM     13  C   UNL     1     -14.351 203.817 116.149  1.00  0.00     0.295 C 
ATOM     14  C   UNL     1     -12.672 204.321 117.593  1.00  0.00     0.061 C 
ATOM     15  C   UNL     1     -14.217 204.548 119.502  1.00  0.00     0.172 C 
ATOM     16  O   UNL     1     -15.027 203.824 115.133  1.00  0.00    -0.265 OA
ATOM     17  C   UNL     1     -11.415 204.777 118.265  1.00  0.00     0.069 C 
BRANCH  11  18
ATOM     18  C   UNL     1     -15.664 202.376 117.739  1.00  0.00     0.067 A 
ATOM     19  C   UNL     1     -15.304 201.020 117.757  1.00  0.00     0.028 A 
ATOM     20  C   UNL     1     -17.000 202.700 118.011  1.00  0.00     0.028 A 
ATOM     21  C   UNL     1     -16.240 200.025 118.060  1.00  0.00     0.002 A 
ATOM     22  C   UNL     1     -17.938 201.707 118.314  1.00  0.00     0.002 A 
ATOM     23  C   UNL     1     -17.556 200.370 118.345  1.00  0.00     0.000 A 
ENDBRANCH  11  18
ENDBRANCH   7  10
ENDBRANCH   1   6
BRANCH   2  24
ATOM     24  S   UNL     1     -12.080 205.992 111.604  1.00  0.00     0.243 S 
ATOM     25  O   UNL     1     -11.791 206.554 110.305  1.00  0.00    -0.207 OA
ATOM     26  O   UNL     1     -11.768 204.611 111.915  1.00  0.00    -0.207 OA
BRANCH  24  27
ATOM     27  C   UNL     1     -13.810 206.236 111.906  1.00  0.00     0.082 A 
ATOM     28  C   UNL     1     -14.735 205.974 110.890  1.00  0.00     0.022 A 
ATOM     29  C   UNL     1     -14.233 206.678 113.163  1.00  0.00     0.022 A 
ATOM     30  C   UNL     1     -16.095 206.143 111.142  1.00  0.00     0.001 A 
ATOM     31  C   UNL     1     -15.598 206.829 113.411  1.00  0.00     0.001 A 
ATOM     32  C   UNL     1     -16.526 206.563 112.402  1.00  0.00     0.000 A 
ENDBRANCH  24  27
ENDBRANCH   2  24
TORSDOF 5
ENDMDL
MODEL 2
REMARK minimizedAffinity -9.06238747
REMARK minimizedRMSD -1
REMARK SMILES Cc1c(NC(=O)[C@@H]2CCCN2S(=O)(=O)c2ccccc2)c(=O)n(-c2ccccc2)n1C
REMARK SMILES IDX 7 1 11 2 10 3 9 4 8 5 5 6 4 7 6 9 3 10 23 11 30 12 21 13
REMARK SMILES IDX 2 14 31 15 22 16 1 17 24 18 25 19 29 20 26 21 28 22 27 23
REMARK SMILES IDX 12 24 13 25 14 26 15 27 16 28 20 29 17 30 19 31 18 32
REMARK H PARENT 4 8
REMARK Flexibility Score: inf
ROOT
ATOM      1  C   UNL     1     -16.367 201.642 118.742  1.00  0.00     0.162 C 
ATOM      2  N   UNL     1     -17.328 201.948 119.848  1.00  0.00    -0.185 NA
ATOM      3  C   UNL     1     -18.112 200.721 120.136  1.00  0.00     0.103 C 
ATOM      4  C   UNL     1     -17.397 199.607 119.390  1.00  0.00     0.019 C 
ATOM      5  C   UNL     1     -16.857 200.314 118.166  1.00  0.00     0.032 C 
ENDROOT
BRANCH   1   6
ATOM      6  C   UNL     1     -16.377 202.734 117.670  1.00  0.00     0.243 C 
ATOM      7  N   UNL     1     -15.114 203.250 117.415  1.00  0.00    -0.319 N 
ATOM      8  H   UNL     1     -14.408 203.062 118.111  1.00  0.00     0.170 HD
ATOM      9  O   UNL     1     -17.424 203.117 117.159  1.00  0.00    -0.273 OA
BRANCH   7  10
ATOM     10  C   UNL     1     -14.790 204.193 116.471  1.00  0.00     0.130 C 
ATOM     11  N   UNL     1     -14.453 205.307 114.462  1.00  0.00    -0.216 N 
ATOM     12  N   UNL     1     -14.171 206.198 115.535  1.00  0.00    -0.283 N 
ATOM     13  C   UNL     1     -14.723 204.028 114.975  1.00  0.00     0.295 C 
ATOM     14  C   UNL     1     -14.403 205.463 116.706  1.00  0.00     0.061 C 
ATOM     15  C   UNL     1     -12.880 206.896 115.397  1.00  0.00     0.172 C 
ATOM     16  O   UNL     1     -14.842 202.976 114.367  1.00  0.00    -0.265 OA
ATOM     17  C   UNL     1     -14.253 206.132 118.036  1.00  0.00     0.069 C 
BRANCH  11  18
ATOM     18  C   UNL     1     -14.810 205.780 113.171  1.00  0.00     0.067 A 
ATOM     19  C   UNL     1     -16.070 206.350 112.931  1.00  0.00     0.028 A 
ATOM     20  C   UNL     1     -13.923 205.675 112.091  1.00  0.00     0.028 A 
ATOM     21  C   UNL     1     -16.421 206.821 111.662  1.00  0.00     0.002 A 
ATOM     22  C   UNL     1     -14.274 206.144 110.821  1.00  0.00     0.002 A 
ATOM     23  C   UNL     1     -15.521 206.724 110.607  1.00  0.00     0.000 A 
ENDBRANCH  11  18
ENDBRANCH   7  10
ENDBRANCH   1   6
BRANCH   2  24
ATOM     24  S   UNL     1     -16.745 202.792 121.190  1.00  0.00     0.243 S 
ATOM     25  O   UNL     1     -16.281 201.839 122.172  1.00  0.00    -0.207 OA
ATOM     26  O   UNL     1     -15.874 203.831 120.677  1.00  0.00    -0.207 OA
BRANCH  24  27
ATOM     27  C   UNL     1     -18.184 203.579 121.865  1.00  0.00     0.082 A 
ATOM     28  C   UNL     1     -18.284 203.775 123.247  1.00  0.00     0.022 A 
ATOM     29  C   UNL     1     -19.201 204.005 121.006  1.00  0.00     0.022 A 
ATOM     30  C   UNL     1     -19.406 204.417 123.767  1.00  0.00     0.001 A 
ATOM     31  C   UNL     1     -20.312 204.661 121.536  1.00  0.00     0.001 A 
ATOM     32  C   UNL     1     -20.414 204.865 122.913  1.00  0.00     0.000 A 
ENDBRANCH  24  27
ENDBRANCH   2  24
TORSDOF 5
ENDMDL
MODEL 3
REMARK minimizedAffinity -8.89243984
REMARK minimizedRMSD -1
REMARK SMILES Cc1c(NC(=O)[C@@H]2CCCN2S(=O)(=O)c2ccccc2)c(=O)n(-c2ccccc2)n1C
REMARK SMILES IDX 7 1 11 2 10 3 9 4 8 5 5 6 4 7 6 9 3 10 23 11 30 12 21 13
REMARK SMILES IDX 2 14 31 15 22 16 1 17 24 18 25 19 29 20 26 21 28 22 27 23
REMARK SMILES IDX 12 24 13 25 14 26 15 27 16 28 20 29 17 30 19 31 18 32
REMARK H PARENT 4 8
REMARK Flexibility Score: inf
ROOT
ATOM      1  C   UNL     1     -11.434 206.799 113.906  1.00  0.00     0.162 C 
ATOM      2  N   UNL     1     -10.007 207.177 114.153  1.00  0.00    -0.185 NA
ATOM      3  C   UNL     1      -9.328 207.313 112.840  1.00  0.00     0.103 C 
ATOM      4  C   UNL     1     -10.445 207.301 111.810  1.00  0.00     0.019 C 
ATOM      5  C   UNL     1     -11.470 206.381 112.437  1.00  0.00     0.032 C 
ENDROOT
BRANCH   1   6
ATOM      6  C   UNL     1     -11.874 205.645 114.809  1.00  0.00     0.243 C 
ATOM      7  N   UNL     1     -12.848 206.018 115.724  1.00  0.00    -0.319 N 
ATOM      8  H   UNL     1     -12.959 207.009 115.876  1.00  0.00     0.170 HD
ATOM      9  O   UNL     1     -11.351 204.538 114.731  1.00  0.00    -0.273 OA
BRANCH   7  10
ATOM     10  C   UNL     1     -13.484 205.197 116.624  1.00  0.00     0.130 C 
ATOM     11  N   UNL     1     -14.901 203.638 117.598  1.00  0.00    -0.216 N 
ATOM     12  N   UNL     1     -13.967 204.085 118.575  1.00  0.00    -0.283 N 
ATOM     13  C   UNL     1     -14.728 204.374 116.415  1.00  0.00     0.295 C 
ATOM     14  C   UNL     1     -13.146 205.011 117.916  1.00  0.00     0.061 C 
ATOM     15  C   UNL     1     -14.593 204.493 119.845  1.00  0.00     0.172 C 
ATOM     16  O   UNL     1     -15.440 204.395 115.424  1.00  0.00    -0.265 OA
ATOM     17  C   UNL     1     -12.005 205.637 118.653  1.00  0.00     0.069 C 
BRANCH  11  18
ATOM     18  C   UNL     1     -15.560 202.386 117.713  1.00  0.00     0.067 A 
ATOM     19  C   UNL     1     -14.856 201.180 117.568  1.00  0.00     0.028 A 
ATOM     20  C   UNL     1     -16.939 202.312 117.954  1.00  0.00     0.028 A 
ATOM     21  C   UNL     1     -15.503 199.945 117.685  1.00  0.00     0.002 A 
ATOM     22  C   UNL     1     -17.587 201.078 118.070  1.00  0.00     0.002 A 
ATOM     23  C   UNL     1     -16.868 199.894 117.942  1.00  0.00     0.000 A 
ENDBRANCH  11  18
ENDBRANCH   7  10
ENDBRANCH   1   6
BRANCH   2  24
ATOM     24  S   UNL     1      -9.696 208.395 115.282  1.00  0.00     0.243 S 
ATOM     25  O   UNL     1      -9.076 209.510 114.603  1.00  0.00    -0.207 OA
ATOM     26  O   UNL     1     -10.912 208.563 116.052  1.00  0.00    -0.207 OA
BRANCH  24  27
ATOM     27  C   UNL     1      -8.471 207.688 116.353  1.00  0.00     0.082 A 
ATOM     28  C   UNL     1      -8.838 207.248 117.630  1.00  0.00     0.022 A 
ATOM     29  C   UNL     1      -7.153 207.569 115.905  1.00  0.00     0.022 A 
ATOM     30  C   UNL     1      -7.876 206.670 118.456  1.00  0.00     0.001 A 
ATOM     31  C   UNL     1      -6.201 206.975 116.734  1.00  0.00     0.001 A 
ATOM     32  C   UNL     1      -6.562 206.528 118.006  1.00  0.00     0.000 A 
ENDBRANCH  24  27
ENDBRANCH   2  24
TORSDOF 5
ENDMDL
MODEL 4
REMARK minimizedAffinity -8.88344669
REMARK minimizedRMSD -1
REMARK SMILES Cc1c(NC(=O)[C@@H]2CCCN2S(=O)(=O)c2ccccc2)c(=O)n(-c2ccccc2)n1C
REMARK SMILES IDX 7 1 11 2 10 3 9 4 8 5 5 6 4 7 6 9 3 10 23 11 30 12 21 13
REMARK SMILES IDX 2 14 31 15 22 16 1 17 24 18 25 19 29 20 26 21 28 22 27 23
REMARK SMILES IDX 12 24 13 25 14 26 15 27 16 28 20 29 17 30 19 31 18 32
REMARK H PARENT 4 8
REMARK Flexibility Score: inf
ROOT
ATOM      1  C   UNL     1     -14.176 204.850 117.491  1.00  0.00     0.162 C 
ATOM      2  N   UNL     1     -14.903 204.335 116.289  1.00  0.00    -0.185 NA
ATOM      3  C   UNL     1     -15.683 203.138 116.693  1.00  0.00     0.103 C 
ATOM      4  C   UNL     1     -15.641 203.130 118.211  1.00  0.00     0.019 C 
ATOM      5  C   UNL     1     -14.281 203.721 118.514  1.00  0.00     0.032 C 
ENDROOT
BRANCH   1   6
ATOM      6  C   UNL     1     -12.712 205.161 117.174  1.00  0.00     0.243 C 
ATOM      7  N   UNL     1     -12.566 206.044 116.114  1.00  0.00    -0.319 N 
ATOM      8  H   UNL     1     -13.374 206.167 115.523  1.00  0.00     0.170 HD
ATOM      9  O   UNL     1     -11.798 204.618 117.785  1.00  0.00    -0.273 OA
BRANCH   7  10
ATOM     10  C   UNL     1     -11.387 206.559 115.633  1.00  0.00     0.130 C 
ATOM     11  N   UNL     1      -9.403 207.743 115.409  1.00  0.00    -0.216 N 
ATOM     12  N   UNL     1      -9.555 206.882 114.286  1.00  0.00    -0.283 N 
ATOM     13  C   UNL     1     -10.555 207.674 116.209  1.00  0.00     0.295 C 
ATOM     14  C   UNL     1     -10.761 206.199 114.494  1.00  0.00     0.061 C 
ATOM     15  C   UNL     1      -9.355 207.561 112.993  1.00  0.00     0.172 C 
ATOM     16  O   UNL     1     -10.865 208.381 117.154  1.00  0.00    -0.265 OA
ATOM     17  C   UNL     1     -11.196 205.158 113.512  1.00  0.00     0.069 C 
BRANCH  11  18
ATOM     18  C   UNL     1      -8.129 208.219 115.819  1.00  0.00     0.067 A 
ATOM     19  C   UNL     1      -7.550 209.348 115.219  1.00  0.00     0.028 A 
ATOM     20  C   UNL     1      -7.401 207.568 116.823  1.00  0.00     0.028 A 
ATOM     21  C   UNL     1      -6.298 209.823 115.624  1.00  0.00     0.002 A 
ATOM     22  C   UNL     1      -6.148 208.040 117.229  1.00  0.00     0.002 A 
ATOM     23  C   UNL     1      -5.599 209.171 116.634  1.00  0.00     0.000 A 
ENDBRANCH  11  18
ENDBRANCH   7  10
ENDBRANCH   1   6
BRANCH   2  24
ATOM     24  S   UNL     1     -15.709 205.454 115.312  1.00  0.00     0.243 S 
ATOM     25  O   UNL     1     -17.114 205.120 115.286  1.00  0.00    -0.207 OA
ATOM     26  O   UNL     1     -15.254 206.766 115.727  1.00  0.00    -0.207 OA
BRANCH  24  27
ATOM     27  C   UNL     1     -15.068 205.150 113.686  1.00  0.00     0.082 A 
ATOM     28  C   UNL     1     -14.797 206.227 112.836  1.00  0.00     0.022 A 
ATOM     29  C   UNL     1     -14.830 203.836 113.276  1.00  0.00     0.022 A 
ATOM     30  C   UNL     1     -14.269 205.982 111.569  1.00  0.00     0.001 A 
ATOM     31  C   UNL     1     -14.287 203.602 112.013  1.00  0.00     0.001 A 
ATOM     32  C   UNL     1     -14.008 204.672 111.162  1.00  0.00     0.000 A 
ENDBRANCH  24  27
ENDBRANCH   2  24
TORSDOF 5
ENDMDL
MODEL 5
REMARK minimizedAffinity -8.60892868
REMARK minimizedRMSD -1
REMARK SMILES Cc1c(NC(=O)[C@@H]2CCCN2S(=O)(=O)c2ccccc2)c(=O)n(-c2ccccc2)n1C
REMARK SMILES IDX 7 1 11 2 10 3 9 4 8 5 5 6 4 7 6 9 3 10 23 11 30 12 21 13
REMARK SMILES IDX 2 14 31 15 22 16 1 17 24 18 25 19 29 20 26 21 28 22 27 23
REMARK SMILES IDX 12 24 13 25 14 26 15 27 16 28 20 29 17 30 19 31 18 32
REMARK H PARENT 4 8
REMARK Flexibility Score: inf
ROOT
ATOM      1  C   UNL     1     -15.297 204.676 121.125  1.00  0.00     0.162 C 
ATOM      2  N   UNL     1     -15.829 203.494 121.873  1.00  0.00    -0.185 NA
ATOM      3  C   UNL     1     -15.247 203.506 123.238  1.00  0.00     0.103 C 
ATOM      4  C   UNL     1     -14.599 204.872 123.383  1.00  0.00     0.019 C 
ATOM      5  C   UNL     1     -14.129 205.172 121.976  1.00  0.00     0.032 C 
ENDROOT
BRANCH   1   6
ATOM      6  C   UNL     1     -14.821 204.288 119.724  1.00  0.00     0.243 C 
ATOM      7  N   UNL     1     -14.733 205.374 118.864  1.00  0.00    -0.319 N 
ATOM      8  H   UNL     1     -15.224 206.207 119.150  1.00  0.00     0.170 HD
ATOM      9  O   UNL     1     -14.604 203.118 119.425  1.00  0.00    -0.273 OA
BRANCH   7  10
ATOM     10  C   UNL     1     -14.282 205.357 117.567  1.00  0.00     0.130 C 
ATOM     11  N   UNL     1     -14.153 205.156 115.258  1.00  0.00    -0.216 N 
ATOM     12  N   UNL     1     -12.908 205.640 115.749  1.00  0.00    -0.283 N 
ATOM     13  C   UNL     1     -14.995 204.851 116.341  1.00  0.00     0.295 C 
ATOM     14  C   UNL     1     -13.064 205.744 117.138  1.00  0.00     0.061 C 
ATOM     15  C   UNL     1     -11.744 204.899 115.233  1.00  0.00     0.172 C 
ATOM     16  O   UNL     1     -16.064 204.265 116.328  1.00  0.00    -0.265 OA
ATOM     17  C   UNL     1     -11.942 206.286 117.965  1.00  0.00     0.069 C 
BRANCH  11  18
ATOM     18  C   UNL     1     -14.566 205.376 113.917  1.00  0.00     0.067 A 
ATOM     19  C   UNL     1     -14.335 204.414 112.921  1.00  0.00     0.028 A 
ATOM     20  C   UNL     1     -15.199 206.568 113.541  1.00  0.00     0.028 A 
ATOM     21  C   UNL     1     -14.745 204.626 111.601  1.00  0.00     0.002 A 
ATOM     22  C   UNL     1     -15.608 206.782 112.220  1.00  0.00     0.002 A 
ATOM     23  C   UNL     1     -15.387 205.809 111.251  1.00  0.00     0.000 A 
ENDBRANCH  11  18
ENDBRANCH   7  10
ENDBRANCH   1   6
BRANCH   2  24
ATOM     24  S   UNL     1     -17.485 203.174 121.771  1.00  0.00     0.243 S 
ATOM     25  O   UNL     1     -17.860 202.318 122.873  1.00  0.00    -0.207 OA
ATOM     26  O   UNL     1     -18.138 204.449 121.551  1.00  0.00    -0.207 OA
BRANCH  24  27
ATOM     27  C   UNL     1     -17.651 202.219 120.286  1.00  0.00     0.082 A 
ATOM     28  C   UNL     1     -18.160 202.819 119.129  1.00  0.00     0.022 A 
ATOM     29  C   UNL     1     -17.259 200.878 120.285  1.00  0.00     0.022 A 
ATOM     30  C   UNL     1     -18.263 202.069 117.959  1.00  0.00     0.001 A 
ATOM     31  C   UNL     1     -17.351 200.140 119.104  1.00  0.00     0.001 A 
ATOM     32  C   UNL     1     -17.853 200.734 117.945  1.00  0.00     0.000 A 
ENDBRANCH  24  27
ENDBRANCH   2  24
TORSDOF 5
ENDMDL
MODEL 6
REMARK minimizedAffinity -8.55075645
REMARK minimizedRMSD -1
REMARK SMILES Cc1c(NC(=O)[C@@H]2CCCN2S(=O)(=O)c2ccccc2)c(=O)n(-c2ccccc2)n1C
REMARK SMILES IDX 7 1 11 2 10 3 9 4 8 5 5 6 4 7 6 9 3 10 23 11 30 12 21 13
REMARK SMILES IDX 2 14 31 15 22 16 1 17 24 18 25 19 29 20 26 21 28 22 27 23
REMARK SMILES IDX 12 24 13 25 14 26 15 27 16 28 20 29 17 30 19 31 18 32
REMARK H PARENT 4 8
REMARK Flexibility Score: inf
ROOT
ATOM      1  C   UNL     1     -11.326 205.853 116.613  1.00  0.00     0.162 C 
ATOM      2  N   UNL     1     -12.120 206.543 115.549  1.00  0.00    -0.185 NA
ATOM      3  C   UNL     1     -12.070 208.004 115.803  1.00  0.00     0.103 C 
ATOM      4  C   UNL     1     -10.992 208.188 116.858  1.00  0.00     0.019 C 
ATOM      5  C   UNL     1     -11.108 206.923 117.681  1.00  0.00     0.032 C 
ENDROOT
BRANCH   1   6
ATOM      6  C   UNL     1     -12.081 204.655 117.192  1.00  0.00     0.243 C 
ATOM      7  N   UNL     1     -13.322 204.999 117.709  1.00  0.00    -0.319 N 
ATOM      8  H   UNL     1     -13.472 205.980 117.889  1.00  0.00     0.170 HD
ATOM      9  O   UNL     1     -11.578 203.537 117.223  1.00  0.00    -0.273 OA
BRANCH   7  10
ATOM     10  C   UNL     1     -14.255 204.141 118.240  1.00  0.00     0.130 C 
ATOM     11  N   UNL     1     -15.620 202.969 119.706  1.00  0.00    -0.216 N 
ATOM     12  N   UNL     1     -15.970 202.620 118.371  1.00  0.00    -0.283 N 
ATOM     13  C   UNL     1     -14.494 203.808 119.689  1.00  0.00     0.295 C 
ATOM     14  C   UNL     1     -15.117 203.368 117.550  1.00  0.00     0.061 C 
ATOM     15  C   UNL     1     -16.056 201.166 118.146  1.00  0.00     0.172 C 
ATOM     16  O   UNL     1     -13.808 204.175 120.629  1.00  0.00    -0.265 OA
ATOM     17  C   UNL     1     -15.262 203.279 116.063  1.00  0.00     0.069 C 
BRANCH  11  18
ATOM     18  C   UNL     1     -16.535 202.822 120.782  1.00  0.00     0.067 A 
ATOM     19  C   UNL     1     -17.865 203.257 120.667  1.00  0.00     0.028 A 
ATOM     20  C   UNL     1     -16.135 202.258 122.001  1.00  0.00     0.028 A 
ATOM     21  C   UNL     1     -18.769 203.109 121.725  1.00  0.00     0.002 A 
ATOM     22  C   UNL     1     -17.038 202.110 123.059  1.00  0.00     0.002 A 
ATOM     23  C   UNL     1     -18.357 202.531 122.919  1.00  0.00     0.000 A 
ENDBRANCH  11  18
ENDBRANCH   7  10
ENDBRANCH   1   6
BRANCH   2  24
ATOM     24  S   UNL     1     -11.886 206.056 113.948  1.00  0.00     0.243 S 
ATOM     25  O   UNL     1     -11.446 207.197 113.176  1.00  0.00    -0.207 OA
ATOM     26  O   UNL     1     -11.108 204.835 113.998  1.00  0.00    -0.207 OA
BRANCH  24  27
ATOM     27  C   UNL     1     -13.514 205.637 113.380  1.00  0.00     0.082 A 
ATOM     28  C   UNL     1     -14.543 206.582 113.467  1.00  0.00     0.022 A 
ATOM     29  C   UNL     1     -13.748 204.370 112.841  1.00  0.00     0.022 A 
ATOM     30  C   UNL     1     -15.812 206.254 112.995  1.00  0.00     0.001 A 
ATOM     31  C   UNL     1     -15.018 204.058 112.356  1.00  0.00     0.001 A 
ATOM     32  C   UNL     1     -16.048 204.997 112.435  1.00  0.00     0.000 A 
ENDBRANCH  24  27
ENDBRANCH   2  24
TORSDOF 5
ENDMDL
MODEL 7
REMARK minimizedAffinity -8.44840336
REMARK minimizedRMSD -1
REMARK SMILES Cc1c(NC(=O)[C@@H]2CCCN2S(=O)(=O)c2ccccc2)c(=O)n(-c2ccccc2)n1C
REMARK SMILES IDX 7 1 11 2 10 3 9 4 8 5 5 6 4 7 6 9 3 10 23 11 30 12 21 13
REMARK SMILES IDX 2 14 31 15 22 16 1 17 24 18 25 19 29 20 26 21 28 22 27 23
REMARK SMILES IDX 12 24 13 25 14 26 15 27 16 28 20 29 17 30 19 31 18 32
REMARK H PARENT 4 8
REMARK Flexibility Score: inf
ROOT
ATOM      1  C   UNL     1     -10.799 206.017 115.848  1.00  0.00     0.162 C 
ATOM      2  N   UNL     1     -11.712 206.706 114.882  1.00  0.00    -0.185 NA
ATOM      3  C   UNL     1     -11.507 208.170 115.009  1.00  0.00     0.103 C 
ATOM      4  C   UNL     1     -10.251 208.325 115.850  1.00  0.00     0.019 C 
ATOM      5  C   UNL     1     -10.317 207.130 116.777  1.00  0.00     0.032 C 
ENDROOT
BRANCH   1   6
ATOM      6  C   UNL     1     -11.531 204.931 116.638  1.00  0.00     0.243 C 
ATOM      7  N   UNL     1     -12.598 205.425 117.374  1.00  0.00    -0.319 N 
ATOM      8  H   UNL     1     -12.610 206.423 117.523  1.00  0.00     0.170 HD
ATOM      9  O   UNL     1     -11.144 203.767 116.632  1.00  0.00    -0.273 OA
BRANCH   7  10
ATOM     10  C   UNL     1     -13.479 204.694 118.133  1.00  0.00     0.130 C 
ATOM     11  N   UNL     1     -15.165 203.251 118.812  1.00  0.00    -0.216 N 
ATOM     12  N   UNL     1     -14.495 203.751 119.964  1.00  0.00    -0.283 N 
ATOM     13  C   UNL     1     -14.662 203.888 117.666  1.00  0.00     0.295 C 
ATOM     14  C   UNL     1     -13.493 204.601 119.478  1.00  0.00     0.061 C 
ATOM     15  C   UNL     1     -15.408 204.271 120.996  1.00  0.00     0.172 C 
ATOM     16  O   UNL     1     -15.094 203.849 116.526  1.00  0.00    -0.265 OA
ATOM     17  C   UNL     1     -12.553 205.255 120.441  1.00  0.00     0.069 C 
BRANCH  11  18
ATOM     18  C   UNL     1     -15.887 202.028 118.838  1.00  0.00     0.067 A 
ATOM     19  C   UNL     1     -16.954 201.834 119.729  1.00  0.00     0.028 A 
ATOM     20  C   UNL     1     -15.545 200.967 117.989  1.00  0.00     0.028 A 
ATOM     21  C   UNL     1     -17.669 200.632 119.753  1.00  0.00     0.002 A 
ATOM     22  C   UNL     1     -16.258 199.764 118.012  1.00  0.00     0.002 A 
ATOM     23  C   UNL     1     -17.324 199.599 118.890  1.00  0.00     0.000 A 
ENDBRANCH  11  18
ENDBRANCH   7  10
ENDBRANCH   1   6
BRANCH   2  24
ATOM     24  S   UNL     1     -11.798 206.099 113.307  1.00  0.00     0.243 S 
ATOM     25  O   UNL     1     -11.478 207.163 112.383  1.00  0.00    -0.207 OA
ATOM     26  O   UNL     1     -11.061 204.852 113.305  1.00  0.00    -0.207 OA
BRANCH  24  27
ATOM     27  C   UNL     1     -13.515 205.713 113.086  1.00  0.00     0.082 A 
ATOM     28  C   UNL     1     -14.479 206.713 113.256  1.00  0.00     0.022 A 
ATOM     29  C   UNL     1     -13.886 204.413 112.732  1.00  0.00     0.022 A 
ATOM     30  C   UNL     1     -15.823 206.408 113.055  1.00  0.00     0.001 A 
ATOM     31  C   UNL     1     -15.234 204.122 112.517  1.00  0.00     0.001 A 
ATOM     32  C   UNL     1     -16.199 205.117 112.679  1.00  0.00     0.000 A 
ENDBRANCH  24  27
ENDBRANCH   2  24
TORSDOF 5
ENDMDL
MODEL 8
REMARK minimizedAffinity -8.36617374
REMARK minimizedRMSD -1
REMARK SMILES Cc1c(NC(=O)[C@@H]2CCCN2S(=O)(=O)c2ccccc2)c(=O)n(-c2ccccc2)n1C
REMARK SMILES IDX 7 1 11 2 10 3 9 4 8 5 5 6 4 7 6 9 3 10 23 11 30 12 21 13
REMARK SMILES IDX 2 14 31 15 22 16 1 17 24 18 25 19 29 20 26 21 28 22 27 23
REMARK SMILES IDX 12 24 13 25 14 26 15 27 16 28 20 29 17 30 19 31 18 32
REMARK H PARENT 4 8
REMARK Flexibility Score: inf
ROOT
ATOM      1  C   UNL     1     -12.229 206.539 117.785  1.00  0.00     0.162 C 
ATOM      2  N   UNL     1     -10.881 207.149 117.560  1.00  0.00    -0.185 NA
ATOM      3  C   UNL     1     -10.459 207.823 118.813  1.00  0.00     0.103 C 
ATOM      4  C   UNL     1     -11.442 207.350 119.870  1.00  0.00     0.019 C 
ATOM      5  C   UNL     1     -12.723 207.174 119.084  1.00  0.00     0.032 C 
ENDROOT
BRANCH   1   6
ATOM      6  C   UNL     1     -13.187 206.848 116.632  1.00  0.00     0.243 C 
ATOM      7  N   UNL     1     -13.166 205.877 115.641  1.00  0.00    -0.319 N 
ATOM      8  H   UNL     1     -12.375 205.252 115.647  1.00  0.00     0.170 HD
ATOM      9  O   UNL     1     -13.842 207.884 116.607  1.00  0.00    -0.273 OA
BRANCH   7  10
ATOM     10  C   UNL     1     -13.953 205.840 114.515  1.00  0.00     0.130 C 
ATOM     11  N   UNL     1     -15.766 205.732 113.070  1.00  0.00    -0.216 N 
ATOM     12  N   UNL     1     -14.582 205.949 112.309  1.00  0.00    -0.283 N 
ATOM     13  C   UNL     1     -15.425 205.538 114.418  1.00  0.00     0.295 C 
ATOM     14  C   UNL     1     -13.540 206.011 113.243  1.00  0.00     0.061 C 
ATOM     15  C   UNL     1     -14.440 205.028 111.168  1.00  0.00     0.172 C 
ATOM     16  O   UNL     1     -16.139 205.164 115.335  1.00  0.00    -0.265 OA
ATOM     17  C   UNL     1     -12.147 206.292 112.774  1.00  0.00     0.069 C 
BRANCH  11  18
ATOM     18  C   UNL     1     -17.048 206.091 112.577  1.00  0.00     0.067 A 
ATOM     19  C   UNL     1     -17.195 207.082 111.594  1.00  0.00     0.028 A 
ATOM     20  C   UNL     1     -18.210 205.483 113.070  1.00  0.00     0.028 A 
ATOM     21  C   UNL     1     -18.457 207.435 111.103  1.00  0.00     0.002 A 
ATOM     22  C   UNL     1     -19.473 205.835 112.582  1.00  0.00     0.002 A 
ATOM     23  C   UNL     1     -19.596 206.806 111.593  1.00  0.00     0.000 A 
ENDBRANCH  11  18
ENDBRANCH   7  10
ENDBRANCH   1   6
BRANCH   2  24
ATOM     24  S   UNL     1      -9.708 206.211 116.787  1.00  0.00     0.243 S 
ATOM     25  O   UNL     1      -8.525 206.171 117.616  1.00  0.00    -0.207 OA
ATOM     26  O   UNL     1     -10.369 204.994 116.360  1.00  0.00    -0.207 OA
BRANCH  24  27
ATOM     27  C   UNL     1      -9.297 207.141 115.334  1.00  0.00     0.082 A 
ATOM     28  C   UNL     1      -8.784 206.483 114.211  1.00  0.00     0.022 A 
ATOM     29  C   UNL     1      -9.502 208.523 115.323  1.00  0.00     0.022 A 
ATOM     30  C   UNL     1      -8.488 207.217 113.064  1.00  0.00     0.001 A 
ATOM     31  C   UNL     1      -9.217 209.247 114.164  1.00  0.00     0.001 A 
ATOM     32  C   UNL     1      -8.711 208.595 113.039  1.00  0.00     0.000 A 
ENDBRANCH  24  27
ENDBRANCH   2  24
TORSDOF 5
ENDMDL
MODEL 9
REMARK minimizedAffinity -8.2497654
REMARK minimizedRMSD -1
REMARK SMILES Cc1c(NC(=O)[C@@H]2CCCN2S(=O)(=O)c2ccccc2)c(=O)n(-c2ccccc2)n1C
REMARK SMILES IDX 7 1 11 2 10 3 9 4 8 5 5 6 4 7 6 9 3 10 23 11 30 12 21 13
REMARK SMILES IDX 2 14 31 15 22 16 1 17 24 18 25 19 29 20 26 21 28 22 27 23
REMARK SMILES IDX 12 24 13 25 14 26 15 27 16 28 20 29 17 30 19 31 18 32
REMARK H PARENT 4 8
REMARK Flexibility Score: inf
ROOT
ATOM      1  C   UNL     1     -12.683 204.858 114.568  1.00  0.00     0.162 C 
ATOM      2  N   UNL     1     -13.466 205.299 113.370  1.00  0.00    -0.185 NA
ATOM      3  C   UNL     1     -12.526 205.916 112.401  1.00  0.00     0.103 C 
ATOM      4  C   UNL     1     -11.139 205.567 112.913  1.00  0.00     0.019 C 
ATOM      5  C   UNL     1     -11.329 205.548 114.414  1.00  0.00     0.032 C 
ENDROOT
BRANCH   1   6
ATOM      6  C   UNL     1     -13.363 205.280 115.871  1.00  0.00     0.243 C 
ATOM      7  N   UNL     1     -13.221 204.341 116.882  1.00  0.00    -0.319 N 
ATOM      8  H   UNL     1     -12.942 203.416 116.593  1.00  0.00     0.170 HD
ATOM      9  O   UNL     1     -14.001 206.325 115.949  1.00  0.00    -0.273 OA
BRANCH   7  10
ATOM     10  C   UNL     1     -13.664 204.457 118.177  1.00  0.00     0.130 C 
ATOM     11  N   UNL     1     -14.803 204.146 120.176  1.00  0.00    -0.216 N 
ATOM     12  N   UNL     1     -13.803 205.141 120.365  1.00  0.00    -0.283 N 
ATOM     13  C   UNL     1     -14.843 203.776 118.821  1.00  0.00     0.295 C 
ATOM     14  C   UNL     1     -13.157 205.267 119.128  1.00  0.00     0.061 C 
ATOM     15  C   UNL     1     -14.306 206.365 121.015  1.00  0.00     0.172 C 
ATOM     16  O   UNL     1     -15.668 203.084 118.249  1.00  0.00    -0.265 OA
ATOM     17  C   UNL     1     -11.998 206.204 118.996  1.00  0.00     0.069 C 
BRANCH  11  18
ATOM     18  C   UNL     1     -15.325 203.395 121.262  1.00  0.00     0.067 A 
ATOM     19  C   UNL     1     -16.709 203.230 121.430  1.00  0.00     0.028 A 
ATOM     20  C   UNL     1     -14.478 202.809 122.211  1.00  0.00     0.028 A 
ATOM     21  C   UNL     1     -17.226 202.486 122.495  1.00  0.00     0.002 A 
ATOM     22  C   UNL     1     -14.993 202.065 123.278  1.00  0.00     0.002 A 
ATOM     23  C   UNL     1     -16.367 201.898 123.417  1.00  0.00     0.000 A 
ENDBRANCH  11  18
ENDBRANCH   7  10
ENDBRANCH   1   6
BRANCH   2  24
ATOM     24  S   UNL     1     -14.600 204.224 112.727  1.00  0.00     0.243 S 
ATOM     25  O   UNL     1     -14.091 203.705 111.478  1.00  0.00    -0.207 OA
ATOM     26  O   UNL     1     -14.988 203.340 113.808  1.00  0.00    -0.207 OA
BRANCH  24  27
ATOM     27  C   UNL     1     -15.995 205.248 112.339  1.00  0.00     0.082 A 
ATOM     28  C   UNL     1     -15.875 206.242 111.361  1.00  0.00     0.022 A 
ATOM     29  C   UNL     1     -17.205 205.043 113.007  1.00  0.00     0.022 A 
ATOM     30  C   UNL     1     -16.982 207.025 111.043  1.00  0.00     0.001 A 
ATOM     31  C   UNL     1     -18.312 205.821 112.669  1.00  0.00     0.001 A 
ATOM     32  C   UNL     1     -18.200 206.810 111.691  1.00  0.00     0.000 A 
ENDBRANCH  24  27
ENDBRANCH   2  24
TORSDOF 5
ENDMDL
