MODEL 1
REMARK minimizedAffinity -11.6326056
REMARK minimizedRMSD -1
ROOT
REMARK  Name = Estrogen receptor pdbqt/ligands_pdbqt/5toa_ligand_A.pdb
REMARK                            x       y       z     vdW  Elec       q    Type
REMARK                         _______ _______ _______ _____ _____    ______ ____
ATOM      1  C1  EST A 601      18.889  43.317  12.763  0.00  0.00    -0.001 A 
ATOM      2  C2  EST A 601      18.429  42.445  11.780  0.00  0.00    +0.042 A 
ATOM      3  C3  EST A 601      18.674  41.076  11.854  0.00  0.00    +0.195 A 
ATOM      4  O3  EST A 601      18.209  40.252  10.876  0.00  0.00    -0.287 OA
ATOM      5  C4  EST A 601      19.390  40.538  12.917  0.00  0.00    +0.037 A 
ATOM      6  C5  EST A 601      19.871  41.363  13.925  0.00  0.00    -0.023 A 
ATOM      7  C6  EST A 601      20.648  40.760  15.073  0.00  0.00    +0.026 C 
ATOM      8  C7  EST A 601      21.454  41.837  15.786  0.00  0.00    +0.005 C 
ATOM      9  C8  EST A 601      20.543  42.999  16.142  0.00  0.00    +0.004 C 
ATOM     10  C9  EST A 601      20.108  43.752  14.892  0.00  0.00    +0.022 C 
ATOM     11  C10 EST A 601      19.604  42.825  13.848  0.00  0.00    -0.026 A 
ATOM     12  C11 EST A 601      19.103  44.850  15.259  0.00  0.00    +0.004 C 
ATOM     13  C12 EST A 601      19.709  45.836  16.264  0.00  0.00    +0.003 C 
ATOM     14  C13 EST A 601      20.251  45.085  17.473  0.00  0.00    +0.028 C 
ATOM     15  C14 EST A 601      21.234  44.030  17.015  0.00  0.00    +0.003 C 
ATOM     16  C15 EST A 601      21.925  43.562  18.285  0.00  0.00    +0.003 C 
ATOM     17  C16 EST A 601      21.948  44.818  19.161  0.00  0.00    +0.033 C 
ATOM     18  C17 EST A 601      21.100  45.877  18.451  0.00  0.00    +0.152 C 
ATOM     19  O17 EST A 601      20.288  46.587  19.389  0.00  0.00    -0.223 OA
ATOM     20  C18 EST A 601      19.098  44.448  18.244  0.00  0.00    +0.003 C 
ATOM     21  H   EST A 601      17.725  40.605  10.155  0.00  0.00    +0.000 HD
ATOM     22  H   EST A 601      19.724  45.959  19.869  0.00  0.00    +0.000 HD
ENDROOT
TORSDOF 0
TER 
ENDMDL
MODEL 2
REMARK minimizedAffinity -10.2588215
REMARK minimizedRMSD -1
ROOT
REMARK  Name = Estrogen receptor pdbqt/ligands_pdbqt/5toa_ligand_A.pdb
REMARK                            x       y       z     vdW  Elec       q    Type
REMARK                         _______ _______ _______ _____ _____    ______ ____
ATOM      1  C1  EST A 601      20.023  40.823  13.934  0.00  0.00    -0.001 A 
ATOM      2  C2  EST A 601      19.692  40.249  12.710  0.00  0.00    +0.042 A 
ATOM      3  C3  EST A 601      18.721  40.812  11.885  0.00  0.00    +0.195 A 
ATOM      4  O3  EST A 601      18.422  40.224  10.694  0.00  0.00    -0.287 OA
ATOM      5  C4  EST A 601      18.049  41.968  12.264  0.00  0.00    +0.037 A 
ATOM      6  C5  EST A 601      18.341  42.581  13.475  0.00  0.00    -0.023 A 
ATOM      7  C6  EST A 601      17.600  43.838  13.871  0.00  0.00    +0.026 C 
ATOM      8  C7  EST A 601      17.723  44.072  15.370  0.00  0.00    +0.005 C 
ATOM      9  C8  EST A 601      19.186  44.012  15.773  0.00  0.00    +0.004 C 
ATOM     10  C9  EST A 601      19.723  42.591  15.663  0.00  0.00    +0.022 C 
ATOM     11  C10 EST A 601      19.383  41.983  14.353  0.00  0.00    -0.026 A 
ATOM     12  C11 EST A 601      21.225  42.569  15.966  0.00  0.00    +0.004 C 
ATOM     13  C12 EST A 601      21.512  43.115  17.370  0.00  0.00    +0.003 C 
ATOM     14  C13 EST A 601      20.883  44.493  17.533  0.00  0.00    +0.028 C 
ATOM     15  C14 EST A 601      19.405  44.415  17.219  0.00  0.00    +0.003 C 
ATOM     16  C15 EST A 601      18.834  45.740  17.700  0.00  0.00    +0.003 C 
ATOM     17  C16 EST A 601      19.712  46.090  18.904  0.00  0.00    +0.033 C 
ATOM     18  C17 EST A 601      20.859  45.076  18.935  0.00  0.00    +0.152 C 
ATOM     19  O17 EST A 601      22.095  45.719  19.252  0.00  0.00    -0.223 OA
ATOM     20  C18 EST A 601      21.577  45.490  16.610  0.00  0.00    +0.003 C 
ATOM     21  H   EST A 601      18.869  39.445  10.430  0.00  0.00    +0.000 HD
ATOM     22  H   EST A 601      22.272  46.418  18.603  0.00  0.00    +0.000 HD
ENDROOT
TORSDOF 0
TER 
ENDMDL
MODEL 3
REMARK minimizedAffinity -9.73580265
REMARK minimizedRMSD -1
ROOT
REMARK  Name = Estrogen receptor pdbqt/ligands_pdbqt/5toa_ligand_A.pdb
REMARK                            x       y       z     vdW  Elec       q    Type
REMARK                         _______ _______ _______ _____ _____    ______ ____
ATOM      1  C1  EST A 601      20.018  44.669  18.091  0.00  0.00    -0.001 A 
ATOM      2  C2  EST A 601      20.877  45.024  19.127  0.00  0.00    +0.042 A 
ATOM      3  C3  EST A 601      22.132  44.435  19.262  0.00  0.00    +0.195 A 
ATOM      4  O3  EST A 601      22.947  44.805  20.287  0.00  0.00    -0.287 OA
ATOM      5  C4  EST A 601      22.565  43.469  18.361  0.00  0.00    +0.037 A 
ATOM      6  C5  EST A 601      21.747  43.079  17.308  0.00  0.00    -0.023 A 
ATOM      7  C6  EST A 601      22.234  42.026  16.338  0.00  0.00    +0.026 C 
ATOM      8  C7  EST A 601      21.059  41.429  15.576  0.00  0.00    +0.005 C 
ATOM      9  C8  EST A 601      20.224  42.545  14.976  0.00  0.00    +0.004 C 
ATOM     10  C9  EST A 601      19.492  43.322  16.062  0.00  0.00    +0.022 C 
ATOM     11  C10 EST A 601      20.409  43.713  17.162  0.00  0.00    -0.026 A 
ATOM     12  C11 EST A 601      18.744  44.511  15.450  0.00  0.00    +0.004 C 
ATOM     13  C12 EST A 601      17.738  44.043  14.391  0.00  0.00    +0.003 C 
ATOM     14  C13 EST A 601      18.436  43.170  13.356  0.00  0.00    +0.028 C 
ATOM     15  C14 EST A 601      19.140  42.025  14.051  0.00  0.00    +0.003 C 
ATOM     16  C15 EST A 601      19.533  41.072  12.933  0.00  0.00    +0.003 C 
ATOM     17  C16 EST A 601      18.411  41.248  11.906  0.00  0.00    +0.033 C 
ATOM     18  C17 EST A 601      17.550  42.423  12.376  0.00  0.00    +0.152 C 
ATOM     19  O17 EST A 601      17.181  43.253  11.272  0.00  0.00    -0.223 OA
ATOM     20  C18 EST A 601      19.432  44.010  12.560  0.00  0.00    +0.003 C 
ATOM     21  H   EST A 601      22.664  45.455  20.899  0.00  0.00    +0.000 HD
ATOM     22  H   EST A 601      17.981  43.570  10.824  0.00  0.00    +0.000 HD
ENDROOT
TORSDOF 0
TER 
ENDMDL
MODEL 4
REMARK minimizedAffinity -9.3699522
REMARK minimizedRMSD -1
ROOT
REMARK  Name = Estrogen receptor pdbqt/ligands_pdbqt/5toa_ligand_A.pdb
REMARK                            x       y       z     vdW  Elec       q    Type
REMARK                         _______ _______ _______ _____ _____    ______ ____
ATOM      1  C1  EST A 601      18.524  45.659  17.528  0.00  0.00    -0.001 A 
ATOM      2  C2  EST A 601      18.948  46.642  18.417  0.00  0.00    +0.042 A 
ATOM      3  C3  EST A 601      20.290  46.769  18.771  0.00  0.00    +0.195 A 
ATOM      4  O3  EST A 601      20.670  47.742  19.643  0.00  0.00    -0.287 OA
ATOM      5  C4  EST A 601      21.248  45.911  18.245  0.00  0.00    +0.037 A 
ATOM      6  C5  EST A 601      20.879  44.913  17.352  0.00  0.00    -0.023 A 
ATOM      7  C6  EST A 601      21.935  43.989  16.790  0.00  0.00    +0.026 C 
ATOM      8  C7  EST A 601      21.288  42.729  16.231  0.00  0.00    +0.005 C 
ATOM      9  C8  EST A 601      20.171  43.114  15.278  0.00  0.00    +0.004 C 
ATOM     10  C9  EST A 601      18.997  43.724  16.032  0.00  0.00    +0.022 C 
ATOM     11  C10 EST A 601      19.446  44.782  16.971  0.00  0.00    -0.026 A 
ATOM     12  C11 EST A 601      17.927  44.207  15.047  0.00  0.00    +0.004 C 
ATOM     13  C12 EST A 601      17.426  43.054  14.169  0.00  0.00    +0.003 C 
ATOM     14  C13 EST A 601      18.602  42.361  13.493  0.00  0.00    +0.028 C 
ATOM     15  C14 EST A 601      19.599  41.917  14.541  0.00  0.00    +0.003 C 
ATOM     16  C15 EST A 601      20.555  40.992  13.804  0.00  0.00    +0.003 C 
ATOM     17  C16 EST A 601      19.667  40.335  12.744  0.00  0.00    +0.033 C 
ATOM     18  C17 EST A 601      18.314  41.051  12.784  0.00  0.00    +0.152 C 
ATOM     19  O17 EST A 601      17.821  41.273  11.461  0.00  0.00    -0.223 OA
ATOM     20  C18 EST A 601      19.258  43.313  12.496  0.00  0.00    +0.003 C 
ATOM     21  H   EST A 601      20.031  48.325  20.004  0.00  0.00    +0.000 HD
ATOM     22  H   EST A 601      18.469  41.790  10.956  0.00  0.00    +0.000 HD
ENDROOT
TORSDOF 0
TER 
ENDMDL
MODEL 5
REMARK minimizedAffinity -8.95800591
REMARK minimizedRMSD -1
ROOT
REMARK  Name = Estrogen receptor pdbqt/ligands_pdbqt/5toa_ligand_A.pdb
REMARK                            x       y       z     vdW  Elec       q    Type
REMARK                         _______ _______ _______ _____ _____    ______ ____
ATOM      1  C1  EST A 601      21.446  43.818  17.565  0.00  0.00    -0.001 A 
ATOM      2  C2  EST A 601      21.493  44.477  18.790  0.00  0.00    +0.042 A 
ATOM      3  C3  EST A 601      20.541  45.434  19.134  0.00  0.00    +0.195 A 
ATOM      4  O3  EST A 601      20.616  46.059  20.341  0.00  0.00    -0.287 OA
ATOM      5  C4  EST A 601      19.513  45.762  18.259  0.00  0.00    +0.037 A 
ATOM      6  C5  EST A 601      19.419  45.134  17.024  0.00  0.00    -0.023 A 
ATOM      7  C6  EST A 601      18.293  45.504  16.083  0.00  0.00    +0.026 C 
ATOM      8  C7  EST A 601      18.630  45.069  14.664  0.00  0.00    +0.005 C 
ATOM      9  C8  EST A 601      19.036  43.606  14.665  0.00  0.00    +0.004 C 
ATOM     10  C9  EST A 601      20.385  43.417  15.345  0.00  0.00    +0.022 C 
ATOM     11  C10 EST A 601      20.432  44.108  16.659  0.00  0.00    -0.026 A 
ATOM     12  C11 EST A 601      20.728  41.926  15.436  0.00  0.00    +0.004 C 
ATOM     13  C12 EST A 601      20.764  41.284  14.045  0.00  0.00    +0.003 C 
ATOM     14  C13 EST A 601      19.460  41.560  13.307  0.00  0.00    +0.028 C 
ATOM     15  C14 EST A 601      19.210  43.052  13.264  0.00  0.00    +0.003 C 
ATOM     16  C15 EST A 601      18.077  43.229  12.265  0.00  0.00    +0.003 C 
ATOM     17  C16 EST A 601      18.307  42.096  11.262  0.00  0.00    +0.033 C 
ATOM     18  C17 EST A 601      19.418  41.209  11.831  0.00  0.00    +0.152 C 
ATOM     19  O17 EST A 601      19.113  39.827  11.633  0.00  0.00    -0.223 OA
ATOM     20  C18 EST A 601      18.309  40.842  14.005  0.00  0.00    +0.003 C 
ATOM     21  H   EST A 601      21.306  45.845  20.938  0.00  0.00    +0.000 HD
ATOM     22  H   EST A 601      18.261  39.621  12.050  0.00  0.00    +0.000 HD
ENDROOT
TORSDOF 0
TER 
ENDMDL
