MODEL 1
REMARK minimizedAffinity -9.14823151
REMARK minimizedRMSD -1
REMARK  Name = *****
REMARK  7 active torsions:
REMARK  status: ('A' for Active; 'I' for Inactive)
REMARK    1  A    between atoms: C_1  and  C_2
REMARK    2  A    between atoms: C_5  and  S_6
REMARK    3  A    between atoms: S_6  and  N_9
REMARK    4  A    between atoms: N_9  and  C_10
REMARK    5  A    between atoms: C_11  and  C_12
REMARK    6  A    between atoms: C_12  and  N_13
REMARK    7  A    between atoms: N_13  and  C_14
REMARK                            x       y       z     vdW  Elec       q    Type
REMARK                         _______ _______ _______ _____ _____    ______ ____
ROOT
ATOM      1  C   UNL A   1     -11.568 205.542 118.007  0.00  0.00    +0.053 A 
ATOM      2  C   UNL A   1     -12.685 206.063 118.648  0.00  0.00    -0.008 A 
ATOM      3  C   UNL A   1     -12.767 205.753 120.052  0.00  0.00    +0.007 A 
ATOM      4  C   UNL A   1     -11.820 204.961 120.759  0.00  0.00    +0.001 A 
ATOM      5  C   UNL A   1     -10.744 204.411 120.087  0.00  0.00    +0.002 A 
ATOM      6  C   UNL A   1     -10.626 204.679 118.704  0.00  0.00    +0.025 A 
ENDROOT
BRANCH   1   7
ATOM      7  N   UNL A   1     -11.408 205.837 116.605  0.00  0.00    -0.216 N 
ATOM      8  H   UNL A   1     -11.374 204.998 116.027  0.00  0.00    +0.174 HD
BRANCH   7   9
ATOM      9  S   UNL A   1     -10.465 207.247 116.109  0.00  0.00    +0.072 S 
ATOM     10  O   UNL A   1      -9.105 207.071 116.559  0.00  0.00    -0.150 OA
ATOM     11  O   UNL A   1     -11.006 208.490 116.473  0.00  0.00    -0.150 OA
BRANCH   9  16
ATOM     12  C   UNL A   1     -11.015 206.692 110.040  0.00  0.00    +0.044 C 
ATOM     13  C   UNL A   1     -10.751 206.754 111.512  0.00  0.00    -0.050 A 
ATOM     14  C   UNL A   1      -9.830 207.664 112.041  0.00  0.00    +0.005 A 
ATOM     15  C   UNL A   1      -9.671 207.798 113.428  0.00  0.00    +0.029 A 
ATOM     16  C   UNL A   1     -10.508 207.083 114.299  0.00  0.00    +0.108 A 
ATOM     17  C   UNL A   1     -11.320 206.075 113.766  0.00  0.00    +0.029 A 
ATOM     18  C   UNL A   1     -11.450 205.918 112.385  0.00  0.00    +0.005 A 
ENDBRANCH   9  16
ENDBRANCH   7   9
ENDBRANCH   1   7
BRANCH   2  19
ATOM     19  C   UNL A   1     -13.819 207.009 118.009  0.00  0.00    +0.138 C 
BRANCH  19  20
ATOM     20  N   UNL A   1     -14.893 206.560 117.005  0.00  0.00    -0.339 N 
ATOM     21  H   UNL A   1     -15.722 206.492 117.608  0.00  0.00    +0.146 HD
BRANCH  20  22
ATOM     22  C   UNL A   1     -15.024 205.489 115.876  0.00  0.00    +0.046 A 
ATOM     23  C   UNL A   1     -14.671 204.101 115.613  0.00  0.00    +0.134 A 
ATOM     24  N   UNL A   1     -15.163 203.704 114.377  0.00  0.00    -0.253 NA
ATOM     25  C   UNL A   1     -15.092 204.524 113.344  0.00  0.00    +0.071 A 
ATOM     26  C   UNL A   1     -14.501 204.108 112.206  0.00  0.00    +0.028 A 
ATOM     27  C   UNL A   1     -14.495 204.954 111.116  0.00  0.00    +0.002 A 
ATOM     28  C   UNL A   1     -15.118 206.221 111.240  0.00  0.00    +0.001 A 
ATOM     29  C   UNL A   1     -15.698 206.614 112.417  0.00  0.00    +0.010 A 
ATOM     30  C   UNL A   1     -15.514 205.803 113.499  0.00  0.00    +0.002 A 
ATOM     31  C   UNL A   1     -15.608 206.223 114.798  0.00  0.00    +0.034 A 
ENDBRANCH  20  22
ENDBRANCH  19  20
ENDBRANCH   2  19
TORSDOF 6
ENDMDL
MODEL 2
REMARK minimizedAffinity -8.86631775
REMARK minimizedRMSD -1
REMARK  Name = *****
REMARK  7 active torsions:
REMARK  status: ('A' for Active; 'I' for Inactive)
REMARK    1  A    between atoms: C_1  and  C_2
REMARK    2  A    between atoms: C_5  and  S_6
REMARK    3  A    between atoms: S_6  and  N_9
REMARK    4  A    between atoms: N_9  and  C_10
REMARK    5  A    between atoms: C_11  and  C_12
REMARK    6  A    between atoms: C_12  and  N_13
REMARK    7  A    between atoms: N_13  and  C_14
REMARK                            x       y       z     vdW  Elec       q    Type
REMARK                         _______ _______ _______ _____ _____    ______ ____
ROOT
ATOM      1  C   UNL A   1     -13.962 205.499 118.733  0.00  0.00    +0.053 A 
ATOM      2  C   UNL A   1     -13.020 206.512 118.594  0.00  0.00    -0.008 A 
ATOM      3  C   UNL A   1     -12.000 206.523 119.610  0.00  0.00    +0.007 A 
ATOM      4  C   UNL A   1     -11.938 205.609 120.699  0.00  0.00    +0.001 A 
ATOM      5  C   UNL A   1     -12.916 204.642 120.844  0.00  0.00    +0.002 A 
ATOM      6  C   UNL A   1     -13.945 204.598 119.876  0.00  0.00    +0.025 A 
ENDROOT
BRANCH   1   7
ATOM      7  N   UNL A   1     -14.997 205.412 117.734  0.00  0.00    -0.216 N 
ATOM      8  H   UNL A   1     -15.860 205.875 118.018  0.00  0.00    +0.174 HD
BRANCH   7   9
ATOM      9  S   UNL A   1     -15.103 203.978 116.705  0.00  0.00    +0.072 S 
ATOM     10  O   UNL A   1     -16.370 203.332 116.948  0.00  0.00    -0.150 OA
ATOM     11  O   UNL A   1     -14.014 203.098 116.788  0.00  0.00    -0.150 OA
BRANCH   9  16
ATOM     12  C   UNL A   1     -15.487 206.220 111.024  0.00  0.00    +0.044 C 
ATOM     13  C   UNL A   1     -15.254 205.726 112.418  0.00  0.00    -0.050 A 
ATOM     14  C   UNL A   1     -15.294 206.600 113.509  0.00  0.00    +0.005 A 
ATOM     15  C   UNL A   1     -15.189 206.114 114.820  0.00  0.00    +0.029 A 
ATOM     16  C   UNL A   1     -15.139 204.731 115.051  0.00  0.00    +0.108 A 
ATOM     17  C   UNL A   1     -14.953 203.878 113.955  0.00  0.00    +0.029 A 
ATOM     18  C   UNL A   1     -15.021 204.368 112.649  0.00  0.00    +0.005 A 
ENDBRANCH   9  16
ENDBRANCH   7   9
ENDBRANCH   1   7
BRANCH   2  19
ATOM     19  C   UNL A   1     -12.924 207.591 117.404  0.00  0.00    +0.138 C 
BRANCH  19  20
ATOM     20  N   UNL A   1     -11.626 208.219 116.873  0.00  0.00    -0.339 N 
ATOM     21  H   UNL A   1     -11.842 209.221 116.934  0.00  0.00    +0.146 HD
BRANCH  20  22
ATOM     22  C   UNL A   1     -10.668 208.003 115.659  0.00  0.00    +0.046 A 
ATOM     23  C   UNL A   1      -9.543 208.653 114.999  0.00  0.00    +0.134 A 
ATOM     24  N   UNL A   1      -9.074 207.866 113.957  0.00  0.00    -0.253 NA
ATOM     25  C   UNL A   1      -9.927 207.243 113.164  0.00  0.00    +0.071 A 
ATOM     26  C   UNL A   1      -9.850 207.426 111.831  0.00  0.00    +0.028 A 
ATOM     27  C   UNL A   1     -10.706 206.716 111.014  0.00  0.00    +0.002 A 
ATOM     28  C   UNL A   1     -11.624 205.819 111.614  0.00  0.00    +0.001 A 
ATOM     29  C   UNL A   1     -11.682 205.668 112.974  0.00  0.00    +0.010 A 
ATOM     30  C   UNL A   1     -10.931 206.526 113.726  0.00  0.00    +0.002 A 
ATOM     31  C   UNL A   1     -11.193 206.830 115.034  0.00  0.00    +0.034 A 
ENDBRANCH  20  22
ENDBRANCH  19  20
ENDBRANCH   2  19
TORSDOF 6
ENDMDL
MODEL 3
REMARK minimizedAffinity -8.65235901
REMARK minimizedRMSD -1
REMARK  Name = *****
REMARK  7 active torsions:
REMARK  status: ('A' for Active; 'I' for Inactive)
REMARK    1  A    between atoms: C_1  and  C_2
REMARK    2  A    between atoms: C_5  and  S_6
REMARK    3  A    between atoms: S_6  and  N_9
REMARK    4  A    between atoms: N_9  and  C_10
REMARK    5  A    between atoms: C_11  and  C_12
REMARK    6  A    between atoms: C_12  and  N_13
REMARK    7  A    between atoms: N_13  and  C_14
REMARK                            x       y       z     vdW  Elec       q    Type
REMARK                         _______ _______ _______ _____ _____    ______ ____
ROOT
ATOM      1  C   UNL A   1     -14.750 205.287 113.230  0.00  0.00    +0.053 A 
ATOM      2  C   UNL A   1     -13.874 205.415 112.160  0.00  0.00    -0.008 A 
ATOM      3  C   UNL A   1     -14.456 205.996 110.977  0.00  0.00    +0.007 A 
ATOM      4  C   UNL A   1     -15.817 206.394 110.862  0.00  0.00    +0.001 A 
ATOM      5  C   UNL A   1     -16.682 206.209 111.926  0.00  0.00    +0.002 A 
ATOM      6  C   UNL A   1     -16.159 205.632 113.105  0.00  0.00    +0.025 A 
ENDROOT
BRANCH   1   7
ATOM      7  N   UNL A   1     -14.226 204.738 114.456  0.00  0.00    -0.216 N 
ATOM      8  H   UNL A   1     -13.907 203.775 114.352  0.00  0.00    +0.174 HD
BRANCH   7   9
ATOM      9  S   UNL A   1     -14.912 205.242 116.005  0.00  0.00    +0.072 S 
ATOM     10  O   UNL A   1     -16.015 204.368 116.324  0.00  0.00    -0.150 OA
ATOM     11  O   UNL A   1     -15.245 206.602 116.101  0.00  0.00    -0.150 OA
BRANCH   9  16
ATOM     12  C   UNL A   1     -10.031 204.225 119.553  0.00  0.00    +0.044 C 
ATOM     13  C   UNL A   1     -11.282 204.346 118.739  0.00  0.00    -0.050 A 
ATOM     14  C   UNL A   1     -12.482 204.768 119.321  0.00  0.00    +0.005 A 
ATOM     15  C   UNL A   1     -13.621 204.991 118.533  0.00  0.00    +0.029 A 
ATOM     16  C   UNL A   1     -13.535 204.882 117.136  0.00  0.00    +0.108 A 
ATOM     17  C   UNL A   1     -12.379 204.322 116.580  0.00  0.00    +0.029 A 
ATOM     18  C   UNL A   1     -11.257 204.067 117.371  0.00  0.00    +0.005 A 
ENDBRANCH   9  16
ENDBRANCH   7   9
ENDBRANCH   1   7
BRANCH   2  19
ATOM     19  C   UNL A   1     -12.306 205.056 112.140  0.00  0.00    +0.138 C 
BRANCH  19  20
ATOM     20  N   UNL A   1     -11.157 206.076 112.160  0.00  0.00    -0.339 N 
ATOM     21  H   UNL A   1     -10.592 205.765 111.360  0.00  0.00    +0.146 HD
BRANCH  20  22
ATOM     22  C   UNL A   1     -10.194 206.690 113.225  0.00  0.00    +0.046 A 
ATOM     23  C   UNL A   1      -8.782 206.680 113.586  0.00  0.00    +0.134 A 
ATOM     24  N   UNL A   1      -8.552 207.538 114.652  0.00  0.00    -0.253 NA
ATOM     25  C   UNL A   1      -9.405 207.586 115.659  0.00  0.00    +0.071 A 
ATOM     26  C   UNL A   1      -8.960 207.397 116.917  0.00  0.00    +0.028 A 
ATOM     27  C   UNL A   1      -9.855 207.517 117.961  0.00  0.00    +0.002 A 
ATOM     28  C   UNL A   1     -11.201 207.841 117.663  0.00  0.00    +0.001 A 
ATOM     29  C   UNL A   1     -11.621 208.015 116.371  0.00  0.00    +0.010 A 
ATOM     30  C   UNL A   1     -10.727 207.711 115.384  0.00  0.00    +0.002 A 
ATOM     31  C   UNL A   1     -11.081 207.386 114.103  0.00  0.00    +0.034 A 
ENDBRANCH  20  22
ENDBRANCH  19  20
ENDBRANCH   2  19
TORSDOF 6
ENDMDL
MODEL 4
REMARK minimizedAffinity -8.651021
REMARK minimizedRMSD -1
REMARK  Name = *****
REMARK  7 active torsions:
REMARK  status: ('A' for Active; 'I' for Inactive)
REMARK    1  A    between atoms: C_1  and  C_2
REMARK    2  A    between atoms: C_5  and  S_6
REMARK    3  A    between atoms: S_6  and  N_9
REMARK    4  A    between atoms: N_9  and  C_10
REMARK    5  A    between atoms: C_11  and  C_12
REMARK    6  A    between atoms: C_12  and  N_13
REMARK    7  A    between atoms: N_13  and  C_14
REMARK                            x       y       z     vdW  Elec       q    Type
REMARK                         _______ _______ _______ _____ _____    ______ ____
ROOT
ATOM      1  C   UNL A   1     -11.344 207.430 117.248  0.00  0.00    +0.053 A 
ATOM      2  C   UNL A   1     -12.543 207.225 117.920  0.00  0.00    -0.008 A 
ATOM      3  C   UNL A   1     -12.396 206.823 119.295  0.00  0.00    +0.007 A 
ATOM      4  C   UNL A   1     -11.147 206.615 119.944  0.00  0.00    +0.001 A 
ATOM      5  C   UNL A   1      -9.968 206.775 119.239  0.00  0.00    +0.002 A 
ATOM      6  C   UNL A   1     -10.062 207.160 117.882  0.00  0.00    +0.025 A 
ENDROOT
BRANCH   1   7
ATOM      7  N   UNL A   1     -11.417 207.861 115.875  0.00  0.00    -0.216 N 
ATOM      8  H   UNL A   1     -11.923 208.740 115.764  0.00  0.00    +0.174 HD
BRANCH   7   9
ATOM      9  S   UNL A   1     -11.511 206.659 114.583  0.00  0.00    +0.072 S 
ATOM     10  O   UNL A   1     -12.534 207.069 113.650  0.00  0.00    -0.150 OA
ATOM     11  O   UNL A   1     -11.657 205.331 115.007  0.00  0.00    -0.150 OA
BRANCH   9  16
ATOM     12  C   UNL A   1      -5.918 207.000 112.124  0.00  0.00    +0.044 C 
ATOM     13  C   UNL A   1      -7.293 207.065 112.713  0.00  0.00    -0.050 A 
ATOM     14  C   UNL A   1      -8.416 207.259 111.902  0.00  0.00    +0.005 A 
ATOM     15  C   UNL A   1      -9.708 207.205 112.444  0.00  0.00    +0.029 A 
ATOM     16  C   UNL A   1      -9.886 206.859 113.793  0.00  0.00    +0.108 A 
ATOM     17  C   UNL A   1      -8.760 206.812 114.623  0.00  0.00    +0.029 A 
ATOM     18  C   UNL A   1      -7.473 206.902 114.088  0.00  0.00    +0.005 A 
ENDBRANCH   9  16
ENDBRANCH   7   9
ENDBRANCH   1   7
BRANCH   2  19
ATOM     19  C   UNL A   1     -14.028 207.458 117.348  0.00  0.00    +0.138 C 
BRANCH  19  20
ATOM     20  N   UNL A   1     -14.993 206.352 116.894  0.00  0.00    -0.339 N 
ATOM     21  H   UNL A   1     -15.145 205.838 117.770  0.00  0.00    +0.146 HD
BRANCH  20  22
ATOM     22  C   UNL A   1     -15.087 205.334 115.713  0.00  0.00    +0.046 A 
ATOM     23  C   UNL A   1     -14.698 203.969 115.386  0.00  0.00    +0.134 A 
ATOM     24  N   UNL A   1     -15.169 203.622 114.128  0.00  0.00    -0.253 NA
ATOM     25  C   UNL A   1     -15.108 204.492 113.137  0.00  0.00    +0.071 A 
ATOM     26  C   UNL A   1     -14.498 204.147 111.985  0.00  0.00    +0.028 A 
ATOM     27  C   UNL A   1     -14.503 205.045 110.938  0.00  0.00    +0.002 A 
ATOM     28  C   UNL A   1     -15.159 206.288 111.117  0.00  0.00    +0.001 A 
ATOM     29  C   UNL A   1     -15.759 206.610 112.305  0.00  0.00    +0.010 A 
ATOM     30  C   UNL A   1     -15.564 205.751 113.349  0.00  0.00    +0.002 A 
ATOM     31  C   UNL A   1     -15.680 206.106 114.665  0.00  0.00    +0.034 A 
ENDBRANCH  20  22
ENDBRANCH  19  20
ENDBRANCH   2  19
TORSDOF 6
ENDMDL
MODEL 5
REMARK minimizedAffinity -8.59937859
REMARK minimizedRMSD -1
REMARK  Name = *****
REMARK  7 active torsions:
REMARK  status: ('A' for Active; 'I' for Inactive)
REMARK    1  A    between atoms: C_1  and  C_2
REMARK    2  A    between atoms: C_5  and  S_6
REMARK    3  A    between atoms: S_6  and  N_9
REMARK    4  A    between atoms: N_9  and  C_10
REMARK    5  A    between atoms: C_11  and  C_12
REMARK    6  A    between atoms: C_12  and  N_13
REMARK    7  A    between atoms: N_13  and  C_14
REMARK                            x       y       z     vdW  Elec       q    Type
REMARK                         _______ _______ _______ _____ _____    ______ ____
ROOT
ATOM      1  C   UNL A   1      -7.958 207.343 116.432  0.00  0.00    +0.053 A 
ATOM      2  C   UNL A   1      -7.590 207.377 115.093  0.00  0.00    -0.008 A 
ATOM      3  C   UNL A   1      -6.325 208.016 114.837  0.00  0.00    +0.007 A 
ATOM      4  C   UNL A   1      -5.500 208.600 115.839  0.00  0.00    +0.001 A 
ATOM      5  C   UNL A   1      -5.913 208.597 117.159  0.00  0.00    +0.002 A 
ATOM      6  C   UNL A   1      -7.154 207.991 117.458  0.00  0.00    +0.025 A 
ENDROOT
BRANCH   1   7
ATOM      7  N   UNL A   1      -9.201 206.693 116.763  0.00  0.00    -0.216 N 
ATOM      8  H   UNL A   1      -9.302 205.782 116.315  0.00  0.00    +0.174 HD
BRANCH   7   9
ATOM      9  S   UNL A   1     -10.650 207.665 117.043  0.00  0.00    +0.072 S 
ATOM     10  O   UNL A   1     -10.731 208.675 116.014  0.00  0.00    -0.150 OA
ATOM     11  O   UNL A   1     -10.782 208.190 118.337  0.00  0.00    -0.150 OA
BRANCH   9  16
ATOM     12  C   UNL A   1     -14.894 203.306 116.382  0.00  0.00    +0.044 C 
ATOM     13  C   UNL A   1     -13.875 204.403 116.399  0.00  0.00    -0.050 A 
ATOM     14  C   UNL A   1     -14.263 205.746 116.416  0.00  0.00    +0.005 A 
ATOM     15  C   UNL A   1     -13.309 206.766 116.548  0.00  0.00    +0.029 A 
ATOM     16  C   UNL A   1     -11.961 206.438 116.759  0.00  0.00    +0.108 A 
ATOM     17  C   UNL A   1     -11.565 205.105 116.595  0.00  0.00    +0.029 A 
ATOM     18  C   UNL A   1     -12.514 204.093 116.428  0.00  0.00    +0.005 A 
ENDBRANCH   9  16
ENDBRANCH   7   9
ENDBRANCH   1   7
BRANCH   2  19
ATOM     19  C   UNL A   1      -8.381 206.729 113.851  0.00  0.00    +0.138 C 
BRANCH  19  20
ATOM     20  N   UNL A   1      -9.849 207.003 113.487  0.00  0.00    -0.339 N 
ATOM     21  H   UNL A   1     -10.330 206.727 114.351  0.00  0.00    +0.146 HD
BRANCH  20  22
ATOM     22  C   UNL A   1     -10.801 206.707 112.285  0.00  0.00    +0.046 A 
ATOM     23  C   UNL A   1     -11.124 207.232 110.966  0.00  0.00    +0.134 A 
ATOM     24  N   UNL A   1     -12.065 206.424 110.342  0.00  0.00    -0.253 NA
ATOM     25  C   UNL A   1     -13.079 205.937 111.034  0.00  0.00    +0.071 A 
ATOM     26  C   UNL A   1     -14.340 206.149 110.605  0.00  0.00    +0.028 A 
ATOM     27  C   UNL A   1     -15.382 205.575 111.303  0.00  0.00    +0.002 A 
ATOM     28  C   UNL A   1     -15.080 204.781 112.437  0.00  0.00    +0.001 A 
ATOM     29  C   UNL A   1     -13.788 204.597 112.851  0.00  0.00    +0.010 A 
ATOM     30  C   UNL A   1     -12.825 205.332 112.221  0.00  0.00    +0.002 A 
ATOM     31  C   UNL A   1     -11.606 205.628 112.766  0.00  0.00    +0.034 A 
ENDBRANCH  20  22
ENDBRANCH  19  20
ENDBRANCH   2  19
TORSDOF 6
ENDMDL
MODEL 6
REMARK minimizedAffinity -8.58838749
REMARK minimizedRMSD -1
REMARK  Name = *****
REMARK  7 active torsions:
REMARK  status: ('A' for Active; 'I' for Inactive)
REMARK    1  A    between atoms: C_1  and  C_2
REMARK    2  A    between atoms: C_5  and  S_6
REMARK    3  A    between atoms: S_6  and  N_9
REMARK    4  A    between atoms: N_9  and  C_10
REMARK    5  A    between atoms: C_11  and  C_12
REMARK    6  A    between atoms: C_12  and  N_13
REMARK    7  A    between atoms: N_13  and  C_14
REMARK                            x       y       z     vdW  Elec       q    Type
REMARK                         _______ _______ _______ _____ _____    ______ ____
ROOT
ATOM      1  C   UNL A   1     -11.529 205.815 118.345  0.00  0.00    +0.053 A 
ATOM      2  C   UNL A   1     -11.023 207.109 118.362  0.00  0.00    -0.008 A 
ATOM      3  C   UNL A   1     -10.258 207.436 119.537  0.00  0.00    +0.007 A 
ATOM      4  C   UNL A   1     -10.037 206.548 120.627  0.00  0.00    +0.001 A 
ATOM      5  C   UNL A   1     -10.594 205.282 120.609  0.00  0.00    +0.002 A 
ATOM      6  C   UNL A   1     -11.362 204.919 119.480  0.00  0.00    +0.025 A 
ENDROOT
BRANCH   1   7
ATOM      7  N   UNL A   1     -12.282 205.411 117.184  0.00  0.00    -0.216 N 
ATOM      8  H   UNL A   1     -11.820 205.659 116.309  0.00  0.00    +0.174 HD
BRANCH   7   9
ATOM      9  S   UNL A   1     -14.048 205.413 117.241  0.00  0.00    +0.072 S 
ATOM     10  O   UNL A   1     -14.482 206.577 117.976  0.00  0.00    -0.150 OA
ATOM     11  O   UNL A   1     -14.636 204.225 117.700  0.00  0.00    -0.150 OA
BRANCH   9  16
ATOM     12  C   UNL A   1     -15.752 205.942 111.387  0.00  0.00    +0.044 C 
ATOM     13  C   UNL A   1     -15.194 205.835 112.773  0.00  0.00    -0.050 A 
ATOM     14  C   UNL A   1     -14.811 206.975 113.485  0.00  0.00    +0.005 A 
ATOM     15  C   UNL A   1     -14.398 206.879 114.823  0.00  0.00    +0.029 A 
ATOM     16  C   UNL A   1     -14.460 205.644 115.485  0.00  0.00    +0.108 A 
ATOM     17  C   UNL A   1     -14.704 204.492 114.728  0.00  0.00    +0.029 A 
ATOM     18  C   UNL A   1     -15.079 204.585 113.386  0.00  0.00    +0.005 A 
ENDBRANCH   9  16
ENDBRANCH   7   9
ENDBRANCH   1   7
BRANCH   2  19
ATOM     19  C   UNL A   1     -11.145 208.215 117.200  0.00  0.00    +0.138 C 
BRANCH  19  20
ATOM     20  N   UNL A   1     -10.026 208.611 116.224  0.00  0.00    -0.339 N 
ATOM     21  H   UNL A   1     -10.034 209.635 116.306  0.00  0.00    +0.146 HD
BRANCH  20  22
ATOM     22  C   UNL A   1      -9.600 208.244 114.767  0.00  0.00    +0.046 A 
ATOM     23  C   UNL A   1      -8.878 208.820 113.640  0.00  0.00    +0.134 A 
ATOM     24  N   UNL A   1      -8.787 207.899 112.605  0.00  0.00    -0.253 NA
ATOM     25  C   UNL A   1      -9.825 207.143 112.300  0.00  0.00    +0.071 A 
ATOM     26  C   UNL A   1     -10.287 207.128 111.034  0.00  0.00    +0.028 A 
ATOM     27  C   UNL A   1     -11.330 206.281 110.720  0.00  0.00    +0.002 A 
ATOM     28  C   UNL A   1     -11.864 205.458 111.742  0.00  0.00    +0.001 A 
ATOM     29  C   UNL A   1     -11.377 205.508 113.021  0.00  0.00    +0.010 A 
ATOM     30  C   UNL A   1     -10.468 206.489 113.299  0.00  0.00    +0.002 A 
ATOM     31  C   UNL A   1     -10.226 206.977 114.554  0.00  0.00    +0.034 A 
ENDBRANCH  20  22
ENDBRANCH  19  20
ENDBRANCH   2  19
TORSDOF 6
ENDMDL
MODEL 7
REMARK minimizedAffinity -8.36276627
REMARK minimizedRMSD -1
REMARK  Name = *****
REMARK  7 active torsions:
REMARK  status: ('A' for Active; 'I' for Inactive)
REMARK    1  A    between atoms: C_1  and  C_2
REMARK    2  A    between atoms: C_5  and  S_6
REMARK    3  A    between atoms: S_6  and  N_9
REMARK    4  A    between atoms: N_9  and  C_10
REMARK    5  A    between atoms: C_11  and  C_12
REMARK    6  A    between atoms: C_12  and  N_13
REMARK    7  A    between atoms: N_13  and  C_14
REMARK                            x       y       z     vdW  Elec       q    Type
REMARK                         _______ _______ _______ _____ _____    ______ ____
ROOT
ATOM      1  C   UNL A   1     -16.932 201.957 119.352  0.00  0.00    +0.053 A 
ATOM      2  C   UNL A   1     -15.787 202.272 118.630  0.00  0.00    -0.008 A 
ATOM      3  C   UNL A   1     -15.298 201.209 117.791  0.00  0.00    +0.007 A 
ATOM      4  C   UNL A   1     -15.891 199.919 117.698  0.00  0.00    +0.001 A 
ATOM      5  C   UNL A   1     -17.000 199.613 118.466  0.00  0.00    +0.002 A 
ATOM      6  C   UNL A   1     -17.510 200.622 119.314  0.00  0.00    +0.025 A 
ENDROOT
BRANCH   1   7
ATOM      7  N   UNL A   1     -17.492 202.986 120.192  0.00  0.00    -0.216 N 
ATOM      8  H   UNL A   1     -17.403 203.917 119.788  0.00  0.00    +0.174 HD
BRANCH   7   9
ATOM      9  S   UNL A   1     -17.424 202.814 121.950  0.00  0.00    +0.072 S 
ATOM     10  O   UNL A   1     -17.024 204.079 122.519  0.00  0.00    -0.150 OA
ATOM     11  O   UNL A   1     -16.660 201.736 122.420  0.00  0.00    -0.150 OA
BRANCH   9  16
ATOM     12  C   UNL A   1     -23.344 201.621 122.939  0.00  0.00    +0.044 C 
ATOM     13  C   UNL A   1     -21.917 202.041 122.772  0.00  0.00    -0.050 A 
ATOM     14  C   UNL A   1     -21.006 201.933 123.827  0.00  0.00    +0.005 A 
ATOM     15  C   UNL A   1     -19.646 202.219 123.632  0.00  0.00    +0.029 A 
ATOM     16  C   UNL A   1     -19.175 202.524 122.346  0.00  0.00    +0.108 A 
ATOM     17  C   UNL A   1     -20.110 202.771 121.334  0.00  0.00    +0.029 A 
ATOM     18  C   UNL A   1     -21.468 202.521 121.539  0.00  0.00    +0.005 A 
ENDBRANCH   9  16
ENDBRANCH   7   9
ENDBRANCH   1   7
BRANCH   2  19
ATOM     19  C   UNL A   1     -15.024 203.688 118.589  0.00  0.00    +0.138 C 
BRANCH  19  20
ATOM     20  N   UNL A   1     -14.847 204.570 117.343  0.00  0.00    -0.339 N 
ATOM     21  H   UNL A   1     -15.811 204.629 116.993  0.00  0.00    +0.146 HD
BRANCH  20  22
ATOM     22  C   UNL A   1     -13.882 204.634 116.117  0.00  0.00    +0.046 A 
ATOM     23  C   UNL A   1     -12.552 205.118 115.772  0.00  0.00    +0.134 A 
ATOM     24  N   UNL A   1     -12.241 204.781 114.462  0.00  0.00    -0.253 NA
ATOM     25  C   UNL A   1     -13.158 204.886 113.517  0.00  0.00    +0.071 A 
ATOM     26  C   UNL A   1     -12.894 205.614 112.414  0.00  0.00    +0.028 A 
ATOM     27  C   UNL A   1     -13.838 205.658 111.408  0.00  0.00    +0.002 A 
ATOM     28  C   UNL A   1     -15.040 204.928 111.578  0.00  0.00    +0.001 A 
ATOM     29  C   UNL A   1     -15.279 204.209 112.718  0.00  0.00    +0.010 A 
ATOM     30  C   UNL A   1     -14.384 204.351 113.739  0.00  0.00    +0.002 A 
ATOM     31  C   UNL A   1     -14.672 204.100 115.053  0.00  0.00    +0.034 A 
ENDBRANCH  20  22
ENDBRANCH  19  20
ENDBRANCH   2  19
TORSDOF 6
ENDMDL
MODEL 8
REMARK minimizedAffinity -8.28062248
REMARK minimizedRMSD -1
REMARK  Name = *****
REMARK  7 active torsions:
REMARK  status: ('A' for Active; 'I' for Inactive)
REMARK    1  A    between atoms: C_1  and  C_2
REMARK    2  A    between atoms: C_5  and  S_6
REMARK    3  A    between atoms: S_6  and  N_9
REMARK    4  A    between atoms: N_9  and  C_10
REMARK    5  A    between atoms: C_11  and  C_12
REMARK    6  A    between atoms: C_12  and  N_13
REMARK    7  A    between atoms: N_13  and  C_14
REMARK                            x       y       z     vdW  Elec       q    Type
REMARK                         _______ _______ _______ _____ _____    ______ ____
ROOT
ATOM      1  C   UNL A   1     -14.894 203.312 119.231  0.00  0.00    +0.053 A 
ATOM      2  C   UNL A   1     -15.816 203.163 118.203  0.00  0.00    -0.008 A 
ATOM      3  C   UNL A   1     -17.117 202.715 118.627  0.00  0.00    +0.007 A 
ATOM      4  C   UNL A   1     -17.465 202.413 119.973  0.00  0.00    +0.001 A 
ATOM      5  C   UNL A   1     -16.515 202.521 120.972  0.00  0.00    +0.002 A 
ATOM      6  C   UNL A   1     -15.219 202.947 120.602  0.00  0.00    +0.025 A 
ENDROOT
BRANCH   1   7
ATOM      7  N   UNL A   1     -13.578 203.785 118.881  0.00  0.00    -0.216 N 
ATOM      8  H   UNL A   1     -12.838 203.154 119.188  0.00  0.00    +0.174 HD
BRANCH   7   9
ATOM      9  S   UNL A   1     -13.251 205.521 118.845  0.00  0.00    +0.072 S 
ATOM     10  O   UNL A   1     -12.466 205.864 120.007  0.00  0.00    -0.150 OA
ATOM     11  O   UNL A   1     -14.377 206.341 118.683  0.00  0.00    -0.150 OA
BRANCH   9  16
ATOM     12  C   UNL A   1      -9.474 206.233 114.083  0.00  0.00    +0.044 C 
ATOM     13  C   UNL A   1     -10.507 206.030 115.148  0.00  0.00    -0.050 A 
ATOM     14  C   UNL A   1     -10.932 204.747 115.506  0.00  0.00    +0.005 A 
ATOM     15  C   UNL A   1     -11.812 204.558 116.582  0.00  0.00    +0.029 A 
ATOM     16  C   UNL A   1     -12.198 205.654 117.369  0.00  0.00    +0.108 A 
ATOM     17  C   UNL A   1     -11.887 206.942 116.918  0.00  0.00    +0.029 A 
ATOM     18  C   UNL A   1     -11.039 207.131 115.824  0.00  0.00    +0.005 A 
ENDBRANCH   9  16
ENDBRANCH   7   9
ENDBRANCH   1   7
BRANCH   2  19
ATOM     19  C   UNL A   1     -15.597 203.502 116.645  0.00  0.00    +0.138 C 
BRANCH  19  20
ATOM     20  N   UNL A   1     -15.472 204.911 116.047  0.00  0.00    -0.339 N 
ATOM     21  H   UNL A   1     -15.929 205.482 116.768  0.00  0.00    +0.146 HD
BRANCH  20  22
ATOM     22  C   UNL A   1     -15.720 205.590 114.662  0.00  0.00    +0.046 A 
ATOM     23  C   UNL A   1     -16.796 205.802 113.703  0.00  0.00    +0.134 A 
ATOM     24  N   UNL A   1     -16.353 206.588 112.649  0.00  0.00    -0.253 NA
ATOM     25  C   UNL A   1     -15.153 206.391 112.135  0.00  0.00    +0.071 A 
ATOM     26  C   UNL A   1     -15.024 206.173 110.811  0.00  0.00    +0.028 A 
ATOM     27  C   UNL A   1     -13.757 206.035 110.283  0.00  0.00    +0.002 A 
ATOM     28  C   UNL A   1     -12.646 206.137 111.157  0.00  0.00    +0.001 A 
ATOM     29  C   UNL A   1     -12.815 206.348 112.499  0.00  0.00    +0.010 A 
ATOM     30  C   UNL A   1     -14.093 206.300 112.977  0.00  0.00    +0.002 A 
ATOM     31  C   UNL A   1     -14.416 206.034 114.280  0.00  0.00    +0.034 A 
ENDBRANCH  20  22
ENDBRANCH  19  20
ENDBRANCH   2  19
TORSDOF 6
ENDMDL
MODEL 9
REMARK minimizedAffinity -8.27156258
REMARK minimizedRMSD -1
REMARK  Name = *****
REMARK  7 active torsions:
REMARK  status: ('A' for Active; 'I' for Inactive)
REMARK    1  A    between atoms: C_1  and  C_2
REMARK    2  A    between atoms: C_5  and  S_6
REMARK    3  A    between atoms: S_6  and  N_9
REMARK    4  A    between atoms: N_9  and  C_10
REMARK    5  A    between atoms: C_11  and  C_12
REMARK    6  A    between atoms: C_12  and  N_13
REMARK    7  A    between atoms: N_13  and  C_14
REMARK                            x       y       z     vdW  Elec       q    Type
REMARK                         _______ _______ _______ _____ _____    ______ ____
ROOT
ATOM      1  C   UNL A   1     -16.470 202.113 118.848  0.00  0.00    +0.053 A 
ATOM      2  C   UNL A   1     -15.310 202.107 118.083  0.00  0.00    -0.008 A 
ATOM      3  C   UNL A   1     -15.017 200.847 117.451  0.00  0.00    +0.007 A 
ATOM      4  C   UNL A   1     -15.808 199.672 117.592  0.00  0.00    +0.001 A 
ATOM      5  C   UNL A   1     -16.930 199.690 118.400  0.00  0.00    +0.002 A 
ATOM      6  C   UNL A   1     -17.253 200.903 119.050  0.00  0.00    +0.025 A 
ENDROOT
BRANCH   1   7
ATOM      7  N   UNL A   1     -16.839 203.351 119.487  0.00  0.00    -0.216 N 
ATOM      8  H   UNL A   1     -16.532 204.171 118.964  0.00  0.00    +0.174 HD
BRANCH   7   9
ATOM      9  S   UNL A   1     -16.897 203.443 121.251  0.00  0.00    +0.072 S 
ATOM     10  O   UNL A   1     -16.683 204.815 121.646  0.00  0.00    -0.150 OA
ATOM     11  O   UNL A   1     -16.063 202.542 121.928  0.00  0.00    -0.150 OA
BRANCH   9  16
ATOM     12  C   UNL A   1     -22.704 202.159 122.694  0.00  0.00    +0.044 C 
ATOM     13  C   UNL A   1     -21.284 202.349 122.257  0.00  0.00    -0.050 A 
ATOM     14  C   UNL A   1     -20.982 202.833 120.981  0.00  0.00    +0.005 A 
ATOM     15  C   UNL A   1     -19.657 203.118 120.618  0.00  0.00    +0.029 A 
ATOM     16  C   UNL A   1     -18.633 203.008 121.571  0.00  0.00    +0.108 A 
ATOM     17  C   UNL A   1     -18.922 202.387 122.793  0.00  0.00    +0.029 A 
ATOM     18  C   UNL A   1     -20.238 202.070 123.139  0.00  0.00    +0.005 A 
ENDBRANCH   9  16
ENDBRANCH   7   9
ENDBRANCH   1   7
BRANCH   2  19
ATOM     19  C   UNL A   1     -14.335 203.352 117.788  0.00  0.00    +0.138 C 
BRANCH  19  20
ATOM     20  N   UNL A   1     -14.068 203.969 116.406  0.00  0.00    -0.339 N 
ATOM     21  H   UNL A   1     -13.081 204.239 116.488  0.00  0.00    +0.146 HD
BRANCH  20  22
ATOM     22  C   UNL A   1     -14.773 204.988 115.456  0.00  0.00    +0.046 A 
ATOM     23  C   UNL A   1     -16.080 205.596 115.249  0.00  0.00    +0.134 A 
ATOM     24  N   UNL A   1     -16.022 206.527 114.221  0.00  0.00    -0.253 NA
ATOM     25  C   UNL A   1     -15.329 206.263 113.129  0.00  0.00    +0.071 A 
ATOM     26  C   UNL A   1     -15.928 206.347 111.924  0.00  0.00    +0.028 A 
ATOM     27  C   UNL A   1     -15.170 206.133 110.791  0.00  0.00    +0.002 A 
ATOM     28  C   UNL A   1     -13.793 205.840 110.944  0.00  0.00    +0.001 A 
ATOM     29  C   UNL A   1     -13.220 205.750 112.185  0.00  0.00    +0.010 A 
ATOM     30  C   UNL A   1     -14.060 205.801 113.260  0.00  0.00    +0.002 A 
ATOM     31  C   UNL A   1     -13.760 205.289 114.493  0.00  0.00    +0.034 A 
ENDBRANCH  20  22
ENDBRANCH  19  20
ENDBRANCH   2  19
TORSDOF 6
ENDMDL
