MODEL 1
REMARK minimizedAffinity -9.89122581
REMARK minimizedRMSD -1
REMARK  Name = *****
REMARK  6 active torsions:
REMARK  status: ('A' for Active; 'I' for Inactive)
REMARK    1  A    between atoms: N_1  and  C_3
REMARK    2  A    between atoms: C_7  and  C_9
REMARK    3  A    between atoms: N_11  and  C_20
REMARK    4  A    between atoms: C_20  and  C_21
REMARK    5  A    between atoms: N_23  and  C_24
REMARK    6  A    between atoms: C_24  and  C_25
REMARK                            x       y       z     vdW  Elec       q    Type
REMARK                         _______ _______ _______ _____ _____    ______ ____
ROOT
ATOM      1  C   UNL A   1     -13.464 206.355 113.170  0.00  0.00    +0.099 A 
ATOM      2  N   UNL A   1     -13.321 206.392 114.473  0.00  0.00    -0.167 NA
ATOM      3  N   UNL A   1     -14.289 205.680 115.175  0.00  0.00    -0.220 N 
ATOM      4  C   UNL A   1     -14.985 204.665 114.533  0.00  0.00    +0.276 A 
ATOM      5  O   UNL A   1     -15.270 203.565 114.976  0.00  0.00    -0.266 OA
ATOM      6  C   UNL A   1     -15.584 205.189 113.309  0.00  0.00    +0.050 A 
ATOM      7  C   UNL A   1     -14.828 206.119 112.611  0.00  0.00    +0.015 A 
ATOM      8  C   UNL A   1     -15.459 206.958 111.692  0.00  0.00    +0.011 A 
ATOM      9  C   UNL A   1     -16.847 206.851 111.514  0.00  0.00    +0.001 A 
ATOM     10  C   UNL A   1     -17.600 205.917 112.244  0.00  0.00    +0.001 A 
ATOM     11  C   UNL A   1     -16.961 205.064 113.141  0.00  0.00    +0.014 A 
ENDROOT
BRANCH   1  16
ATOM     12  C   UNL A   1      -9.958 207.120 111.914  0.00  0.00    +0.076 A 
ATOM     13  C   UNL A   1     -10.102 206.915 110.537  0.00  0.00    +0.028 A 
ATOM     14  C   UNL A   1     -11.335 206.504 110.035  0.00  0.00    +0.003 A 
ATOM     15  C   UNL A   1     -12.404 206.272 110.906  0.00  0.00    +0.010 A 
ATOM     16  C   UNL A   1     -12.254 206.428 112.295  0.00  0.00    +0.005 A 
ATOM     17  C   UNL A   1     -11.024 206.878 112.797  0.00  0.00    +0.038 A 
BRANCH  12  18
ATOM     18  N   UNL A   1      -8.690 207.650 112.435  0.00  0.00    -0.187 N 
ATOM     19  O   UNL A   1      -7.638 207.175 111.986  0.00  0.00    -0.173 OA
ATOM     20  O   UNL A   1      -8.751 208.542 113.294  0.00  0.00    -0.777 OA
ENDBRANCH  12  18
ENDBRANCH   1  16
BRANCH   3  21
ATOM     21  C   UNL A   1     -14.769 206.084 116.481  0.00  0.00    +0.242 C 
BRANCH  21  22
ATOM     22  C   UNL A   1     -14.343 205.092 117.578  0.00  0.00    +0.235 C 
ATOM     23  O   UNL A   1     -13.227 205.127 118.094  0.00  0.00    -0.274 OA
ATOM     24  N   UNL A   1     -15.340 204.263 118.050  0.00  0.00    -0.311 N 
ATOM     25  H   UNL A   1     -16.127 204.096 117.426  0.00  0.00    +0.149 HD
BRANCH  24  26
ATOM     26  C   UNL A   1     -15.083 203.319 119.127  0.00  0.00    +0.135 C 
BRANCH  26  27
ATOM     27  C   UNL A   1     -16.140 202.216 119.207  0.00  0.00    +0.135 C 
ATOM     28  O   UNL A   1     -17.466 202.779 119.095  0.00  0.00    -0.375 OA
ATOM     29  C   UNL A   1     -18.247 201.931 118.239  0.00  0.00    +0.160 C 
ATOM     30  C   UNL A   1     -17.431 200.685 117.969  0.00  0.00    +0.030 C 
ATOM     31  C   UNL A   1     -16.018 201.197 118.085  0.00  0.00    +0.035 C 
ENDBRANCH  26  27
ENDBRANCH  24  26
ENDBRANCH  21  22
ENDBRANCH   3  21
TORSDOF 6
ENDMDL
MODEL 2
REMARK minimizedAffinity -9.82339001
REMARK minimizedRMSD -1
REMARK  Name = *****
REMARK  6 active torsions:
REMARK  status: ('A' for Active; 'I' for Inactive)
REMARK    1  A    between atoms: N_1  and  C_3
REMARK    2  A    between atoms: C_7  and  C_9
REMARK    3  A    between atoms: N_11  and  C_20
REMARK    4  A    between atoms: C_20  and  C_21
REMARK    5  A    between atoms: N_23  and  C_24
REMARK    6  A    between atoms: C_24  and  C_25
REMARK                            x       y       z     vdW  Elec       q    Type
REMARK                         _______ _______ _______ _____ _____    ______ ____
ROOT
ATOM      1  C   UNL A   1     -13.469 206.372 113.241  0.00  0.00    +0.099 A 
ATOM      2  N   UNL A   1     -13.353 206.410 114.547  0.00  0.00    -0.167 NA
ATOM      3  N   UNL A   1     -14.328 205.689 115.228  0.00  0.00    -0.220 N 
ATOM      4  C   UNL A   1     -15.001 204.667 114.573  0.00  0.00    +0.276 A 
ATOM      5  O   UNL A   1     -15.284 203.565 115.011  0.00  0.00    -0.266 OA
ATOM      6  C   UNL A   1     -15.580 205.185 113.337  0.00  0.00    +0.050 A 
ATOM      7  C   UNL A   1     -14.818 206.122 112.654  0.00  0.00    +0.015 A 
ATOM      8  C   UNL A   1     -15.438 206.955 111.722  0.00  0.00    +0.011 A 
ATOM      9  C   UNL A   1     -16.822 206.833 111.516  0.00  0.00    +0.001 A 
ATOM     10  C   UNL A   1     -17.581 205.893 112.230  0.00  0.00    +0.001 A 
ATOM     11  C   UNL A   1     -16.951 205.046 113.141  0.00  0.00    +0.014 A 
ENDROOT
BRANCH   1  16
ATOM     12  C   UNL A   1      -9.944 207.169 112.057  0.00  0.00    +0.076 A 
ATOM     13  C   UNL A   1     -10.058 206.962 110.677  0.00  0.00    +0.028 A 
ATOM     14  C   UNL A   1     -11.277 206.540 110.150  0.00  0.00    +0.003 A 
ATOM     15  C   UNL A   1     -12.362 206.298 110.999  0.00  0.00    +0.010 A 
ATOM     16  C   UNL A   1     -12.241 206.455 112.391  0.00  0.00    +0.005 A 
ATOM     17  C   UNL A   1     -11.027 206.917 112.918  0.00  0.00    +0.038 A 
BRANCH  12  18
ATOM     18  N   UNL A   1      -8.693 207.711 112.604  0.00  0.00    -0.187 N 
ATOM     19  O   UNL A   1      -8.624 208.934 112.786  0.00  0.00    -0.173 OA
ATOM     20  O   UNL A   1      -7.780 206.910 112.850  0.00  0.00    -0.777 OA
ENDBRANCH  12  18
ENDBRANCH   1  16
BRANCH   3  21
ATOM     21  C   UNL A   1     -14.839 206.089 116.524  0.00  0.00    +0.242 C 
BRANCH  21  22
ATOM     22  C   UNL A   1     -13.727 206.134 117.587  0.00  0.00    +0.235 C 
ATOM     23  O   UNL A   1     -13.212 205.112 118.039  0.00  0.00    -0.274 OA
ATOM     24  N   UNL A   1     -13.242 207.391 117.887  0.00  0.00    -0.311 N 
ATOM     25  H   UNL A   1     -13.864 208.175 117.701  0.00  0.00    +0.149 HD
BRANCH  24  26
ATOM     26  C   UNL A   1     -12.151 207.567 118.834  0.00  0.00    +0.135 C 
BRANCH  26  27
ATOM     27  C   UNL A   1     -10.808 207.811 118.144  0.00  0.00    +0.135 C 
ATOM     28  O   UNL A   1     -10.054 206.581 118.057  0.00  0.00    -0.375 OA
ATOM     29  C   UNL A   1      -9.450 206.511 116.756  0.00  0.00    +0.160 C 
ATOM     30  C   UNL A   1      -9.675 207.846 116.079  0.00  0.00    +0.030 C 
ATOM     31  C   UNL A   1     -10.959 208.315 116.717  0.00  0.00    +0.035 C 
ENDBRANCH  26  27
ENDBRANCH  24  26
ENDBRANCH  21  22
ENDBRANCH   3  21
TORSDOF 6
ENDMDL
MODEL 3
REMARK minimizedAffinity -9.71952152
REMARK minimizedRMSD -1
REMARK  Name = *****
REMARK  6 active torsions:
REMARK  status: ('A' for Active; 'I' for Inactive)
REMARK    1  A    between atoms: N_1  and  C_3
REMARK    2  A    between atoms: C_7  and  C_9
REMARK    3  A    between atoms: N_11  and  C_20
REMARK    4  A    between atoms: C_20  and  C_21
REMARK    5  A    between atoms: N_23  and  C_24
REMARK    6  A    between atoms: C_24  and  C_25
REMARK                            x       y       z     vdW  Elec       q    Type
REMARK                         _______ _______ _______ _____ _____    ______ ____
ROOT
ATOM      1  C   UNL A   1     -14.500 203.723 116.994  0.00  0.00    +0.099 A 
ATOM      2  N   UNL A   1     -13.231 203.513 117.249  0.00  0.00    -0.167 NA
ATOM      3  N   UNL A   1     -12.527 204.654 117.621  0.00  0.00    -0.220 N 
ATOM      4  C   UNL A   1     -13.218 205.741 118.137  0.00  0.00    +0.276 A 
ATOM      5  O   UNL A   1     -12.903 206.437 119.088  0.00  0.00    -0.266 OA
ATOM      6  C   UNL A   1     -14.277 206.126 117.209  0.00  0.00    +0.050 A 
ATOM      7  C   UNL A   1     -14.922 205.086 116.557  0.00  0.00    +0.015 A 
ATOM      8  C   UNL A   1     -15.633 205.353 115.386  0.00  0.00    +0.011 A 
ATOM      9  C   UNL A   1     -15.659 206.666 114.891  0.00  0.00    +0.001 A 
ATOM     10  C   UNL A   1     -14.984 207.703 115.553  0.00  0.00    +0.001 A 
ATOM     11  C   UNL A   1     -14.297 207.435 116.736  0.00  0.00    +0.014 A 
ENDROOT
BRANCH   1  16
ATOM     12  C   UNL A   1     -17.733 201.924 117.875  0.00  0.00    +0.076 A 
ATOM     13  C   UNL A   1     -17.269 200.631 118.148  0.00  0.00    +0.028 A 
ATOM     14  C   UNL A   1     -15.910 200.353 118.018  0.00  0.00    +0.003 A 
ATOM     15  C   UNL A   1     -15.029 201.351 117.589  0.00  0.00    +0.010 A 
ATOM     16  C   UNL A   1     -15.493 202.637 117.264  0.00  0.00    +0.005 A 
ATOM     17  C   UNL A   1     -16.855 202.928 117.432  0.00  0.00    +0.038 A 
BRANCH  12  18
ATOM     18  N   UNL A   1     -19.147 202.246 118.109  0.00  0.00    -0.187 N 
ATOM     19  O   UNL A   1     -19.897 202.297 117.125  0.00  0.00    -0.173 OA
ATOM     20  O   UNL A   1     -19.504 202.448 119.278  0.00  0.00    -0.777 OA
ENDBRANCH  12  18
ENDBRANCH   1  16
BRANCH   3  21
ATOM     21  C   UNL A   1     -11.130 204.856 117.295  0.00  0.00    +0.242 C 
BRANCH  21  22
ATOM     22  C   UNL A   1     -10.952 205.427 115.877  0.00  0.00    +0.235 C 
ATOM     23  O   UNL A   1     -10.140 206.317 115.626  0.00  0.00    -0.274 OA
ATOM     24  N   UNL A   1     -11.649 204.773 114.881  0.00  0.00    -0.311 N 
ATOM     25  H   UNL A   1     -12.474 204.253 115.170  0.00  0.00    +0.149 HD
BRANCH  24  26
ATOM     26  C   UNL A   1     -11.524 205.178 113.489  0.00  0.00    +0.135 C 
BRANCH  26  27
ATOM     27  C   UNL A   1     -12.855 205.631 112.886  0.00  0.00    +0.135 C 
ATOM     28  O   UNL A   1     -12.628 206.405 111.687  0.00  0.00    -0.375 OA
ATOM     29  C   UNL A   1     -13.589 206.002 110.699  0.00  0.00    +0.160 C 
ATOM     30  C   UNL A   1     -14.579 205.081 111.380  0.00  0.00    +0.030 C 
ATOM     31  C   UNL A   1     -13.745 204.467 112.475  0.00  0.00    +0.035 C 
ENDBRANCH  26  27
ENDBRANCH  24  26
ENDBRANCH  21  22
ENDBRANCH   3  21
TORSDOF 6
ENDMDL
MODEL 4
REMARK minimizedAffinity -9.70170021
REMARK minimizedRMSD -1
REMARK  Name = *****
REMARK  6 active torsions:
REMARK  status: ('A' for Active; 'I' for Inactive)
REMARK    1  A    between atoms: N_1  and  C_3
REMARK    2  A    between atoms: C_7  and  C_9
REMARK    3  A    between atoms: N_11  and  C_20
REMARK    4  A    between atoms: C_20  and  C_21
REMARK    5  A    between atoms: N_23  and  C_24
REMARK    6  A    between atoms: C_24  and  C_25
REMARK                            x       y       z     vdW  Elec       q    Type
REMARK                         _______ _______ _______ _____ _____    ______ ____
ROOT
ATOM      1  C   UNL A   1     -12.553 206.103 113.854  0.00  0.00    +0.099 A 
ATOM      2  N   UNL A   1     -12.739 205.296 114.870  0.00  0.00    -0.167 NA
ATOM      3  N   UNL A   1     -12.105 205.697 116.042  0.00  0.00    -0.220 N 
ATOM      4  C   UNL A   1     -11.763 207.032 116.208  0.00  0.00    +0.276 A 
ATOM      5  O   UNL A   1     -11.890 207.711 117.212  0.00  0.00    -0.266 OA
ATOM      6  C   UNL A   1     -10.963 207.471 115.068  0.00  0.00    +0.050 A 
ATOM      7  C   UNL A   1     -11.325 206.951 113.834  0.00  0.00    +0.015 A 
ATOM      8  C   UNL A   1     -10.403 206.977 112.787  0.00  0.00    +0.011 A 
ATOM      9  C   UNL A   1      -9.126 207.513 113.019  0.00  0.00    +0.001 A 
ATOM     10  C   UNL A   1      -8.770 208.016 114.279  0.00  0.00    +0.001 A 
ATOM     11  C   UNL A   1      -9.704 208.011 115.314  0.00  0.00    +0.014 A 
ENDROOT
BRANCH   1  16
ATOM     12  C   UNL A   1     -15.969 206.250 112.189  0.00  0.00    +0.076 A 
ATOM     13  C   UNL A   1     -15.630 206.110 110.838  0.00  0.00    +0.028 A 
ATOM     14  C   UNL A   1     -14.288 205.995 110.482  0.00  0.00    +0.003 A 
ATOM     15  C   UNL A   1     -13.294 206.050 111.465  0.00  0.00    +0.010 A 
ATOM     16  C   UNL A   1     -13.624 206.240 112.818  0.00  0.00    +0.005 A 
ATOM     17  C   UNL A   1     -14.976 206.318 113.181  0.00  0.00    +0.038 A 
BRANCH  12  18
ATOM     18  N   UNL A   1     -17.386 206.270 112.578  0.00  0.00    -0.187 N 
ATOM     19  O   UNL A   1     -17.745 205.515 113.492  0.00  0.00    -0.173 OA
ATOM     20  O   UNL A   1     -18.138 207.042 111.967  0.00  0.00    -0.777 OA
ENDBRANCH  12  18
ENDBRANCH   1  16
BRANCH   3  21
ATOM     21  C   UNL A   1     -11.581 204.757 117.012  0.00  0.00    +0.242 C 
BRANCH  21  22
ATOM     22  C   UNL A   1     -12.645 204.354 118.049  0.00  0.00    +0.235 C 
ATOM     23  O   UNL A   1     -12.600 204.740 119.216  0.00  0.00    -0.274 OA
ATOM     24  N   UNL A   1     -13.728 203.660 117.549  0.00  0.00    -0.311 N 
ATOM     25  H   UNL A   1     -13.582 203.154 116.679  0.00  0.00    +0.149 HD
BRANCH  24  26
ATOM     26  C   UNL A   1     -14.831 203.269 118.414  0.00  0.00    +0.135 C 
BRANCH  26  27
ATOM     27  C   UNL A   1     -15.856 202.387 117.698  0.00  0.00    +0.135 C 
ATOM     28  O   UNL A   1     -15.535 200.990 117.882  0.00  0.00    -0.375 OA
ATOM     29  C   UNL A   1     -16.754 200.277 118.142  0.00  0.00    +0.160 C 
ATOM     30  C   UNL A   1     -17.900 201.238 117.913  0.00  0.00    +0.030 C 
ATOM     31  C   UNL A   1     -17.269 202.570 118.232  0.00  0.00    +0.035 C 
ENDBRANCH  26  27
ENDBRANCH  24  26
ENDBRANCH  21  22
ENDBRANCH   3  21
TORSDOF 6
ENDMDL
MODEL 5
REMARK minimizedAffinity -9.61965942
REMARK minimizedRMSD -1
REMARK  Name = *****
REMARK  6 active torsions:
REMARK  status: ('A' for Active; 'I' for Inactive)
REMARK    1  A    between atoms: N_1  and  C_3
REMARK    2  A    between atoms: C_7  and  C_9
REMARK    3  A    between atoms: N_11  and  C_20
REMARK    4  A    between atoms: C_20  and  C_21
REMARK    5  A    between atoms: N_23  and  C_24
REMARK    6  A    between atoms: C_24  and  C_25
REMARK                            x       y       z     vdW  Elec       q    Type
REMARK                         _______ _______ _______ _____ _____    ______ ____
ROOT
ATOM      1  C   UNL A   1     -14.451 203.850 117.416  0.00  0.00    +0.099 A 
ATOM      2  N   UNL A   1     -14.312 204.518 116.296  0.00  0.00    -0.167 NA
ATOM      3  N   UNL A   1     -13.031 205.016 116.083  0.00  0.00    -0.220 N 
ATOM      4  C   UNL A   1     -11.955 204.430 116.735  0.00  0.00    +0.276 A 
ATOM      5  O   UNL A   1     -10.860 204.164 116.270  0.00  0.00    -0.266 OA
ATOM      6  C   UNL A   1     -12.216 204.405 118.171  0.00  0.00    +0.050 A 
ATOM      7  C   UNL A   1     -13.529 204.160 118.548  0.00  0.00    +0.015 A 
ATOM      8  C   UNL A   1     -13.947 204.516 119.830  0.00  0.00    +0.011 A 
ATOM      9  C   UNL A   1     -13.031 205.132 120.698  0.00  0.00    +0.001 A 
ATOM     10  C   UNL A   1     -11.712 205.390 120.294  0.00  0.00    +0.001 A 
ATOM     11  C   UNL A   1     -11.293 205.008 119.021  0.00  0.00    +0.014 A 
ENDROOT
BRANCH   1  16
ATOM     12  C   UNL A   1     -17.691 201.911 117.865  0.00  0.00    +0.076 A 
ATOM     13  C   UNL A   1     -17.218 200.600 117.998  0.00  0.00    +0.028 A 
ATOM     14  C   UNL A   1     -15.848 200.359 117.914  0.00  0.00    +0.003 A 
ATOM     15  C   UNL A   1     -14.964 201.415 117.669  0.00  0.00    +0.010 A 
ATOM     16  C   UNL A   1     -15.436 202.726 117.485  0.00  0.00    +0.005 A 
ATOM     17  C   UNL A   1     -16.810 202.975 117.607  0.00  0.00    +0.038 A 
BRANCH  12  18
ATOM     18  N   UNL A   1     -19.123 202.183 118.054  0.00  0.00    -0.187 N 
ATOM     19  O   UNL A   1     -19.826 202.302 117.041  0.00  0.00    -0.173 OA
ATOM     20  O   UNL A   1     -19.541 202.277 119.217  0.00  0.00    -0.777 OA
ENDBRANCH  12  18
ENDBRANCH   1  16
BRANCH   3  21
ATOM     21  C   UNL A   1     -12.778 206.261 115.385  0.00  0.00    +0.242 C 
BRANCH  21  22
ATOM     22  C   UNL A   1     -12.919 206.099 113.861  0.00  0.00    +0.235 C 
ATOM     23  O   UNL A   1     -12.086 206.550 113.076  0.00  0.00    -0.274 OA
ATOM     24  N   UNL A   1     -13.955 205.290 113.442  0.00  0.00    -0.311 N 
ATOM     25  H   UNL A   1     -14.735 205.179 114.086  0.00  0.00    +0.149 HD
BRANCH  24  26
ATOM     26  C   UNL A   1     -14.163 205.009 112.030  0.00  0.00    +0.135 C 
BRANCH  26  27
ATOM     27  C   UNL A   1     -15.608 205.251 111.588  0.00  0.00    +0.135 C 
ATOM     28  O   UNL A   1     -16.529 204.670 112.537  0.00  0.00    -0.375 OA
ATOM     29  C   UNL A   1     -17.609 205.594 112.743  0.00  0.00    +0.160 C 
ATOM     30  C   UNL A   1     -17.452 206.709 111.731  0.00  0.00    +0.030 C 
ATOM     31  C   UNL A   1     -15.961 206.729 111.507  0.00  0.00    +0.035 C 
ENDBRANCH  26  27
ENDBRANCH  24  26
ENDBRANCH  21  22
ENDBRANCH   3  21
TORSDOF 6
ENDMDL
MODEL 6
REMARK minimizedAffinity -9.5865097
REMARK minimizedRMSD -1
REMARK  Name = *****
REMARK  6 active torsions:
REMARK  status: ('A' for Active; 'I' for Inactive)
REMARK    1  A    between atoms: N_1  and  C_3
REMARK    2  A    between atoms: C_7  and  C_9
REMARK    3  A    between atoms: N_11  and  C_20
REMARK    4  A    between atoms: C_20  and  C_21
REMARK    5  A    between atoms: N_23  and  C_24
REMARK    6  A    between atoms: C_24  and  C_25
REMARK                            x       y       z     vdW  Elec       q    Type
REMARK                         _______ _______ _______ _____ _____    ______ ____
ROOT
ATOM      1  C   UNL A   1     -13.741 204.385 116.782  0.00  0.00    +0.099 A 
ATOM      2  N   UNL A   1     -12.618 203.878 116.332  0.00  0.00    -0.167 NA
ATOM      3  N   UNL A   1     -11.653 204.826 116.007  0.00  0.00    -0.220 N 
ATOM      4  C   UNL A   1     -11.721 206.089 116.577  0.00  0.00    +0.276 A 
ATOM      5  O   UNL A   1     -10.800 206.751 117.026  0.00  0.00    -0.266 OA
ATOM      6  C   UNL A   1     -13.041 206.661 116.331  0.00  0.00    +0.050 A 
ATOM      7  C   UNL A   1     -14.107 205.774 116.377  0.00  0.00    +0.015 A 
ATOM      8  C   UNL A   1     -15.312 206.125 115.767  0.00  0.00    +0.011 A 
ATOM      9  C   UNL A   1     -15.405 207.361 115.107  0.00  0.00    +0.001 A 
ATOM     10  C   UNL A   1     -14.311 208.238 115.053  0.00  0.00    +0.001 A 
ATOM     11  C   UNL A   1     -13.118 207.893 115.686  0.00  0.00    +0.014 A 
ENDROOT
BRANCH   1  16
ATOM     12  C   UNL A   1     -16.373 202.092 118.291  0.00  0.00    +0.076 A 
ATOM     13  C   UNL A   1     -16.324 202.460 119.642  0.00  0.00    +0.028 A 
ATOM     14  C   UNL A   1     -15.415 203.434 120.050  0.00  0.00    +0.003 A 
ATOM     15  C   UNL A   1     -14.543 204.012 119.121  0.00  0.00    +0.010 A 
ATOM     16  C   UNL A   1     -14.551 203.612 117.774  0.00  0.00    +0.005 A 
ATOM     17  C   UNL A   1     -15.491 202.660 117.355  0.00  0.00    +0.038 A 
BRANCH  12  18
ATOM     18  N   UNL A   1     -17.397 201.141 117.840  0.00  0.00    -0.187 N 
ATOM     19  O   UNL A   1     -17.196 199.936 118.046  0.00  0.00    -0.173 OA
ATOM     20  O   UNL A   1     -18.402 201.602 117.280  0.00  0.00    -0.777 OA
ENDBRANCH  12  18
ENDBRANCH   1  16
BRANCH   3  21
ATOM     21  C   UNL A   1     -10.701 204.639 114.930  0.00  0.00    +0.242 C 
BRANCH  21  22
ATOM     22  C   UNL A   1     -11.057 205.492 113.699  0.00  0.00    +0.235 C 
ATOM     23  O   UNL A   1     -10.272 206.309 113.220  0.00  0.00    -0.274 OA
ATOM     24  N   UNL A   1     -12.248 205.173 113.080  0.00  0.00    -0.311 N 
ATOM     25  H   UNL A   1     -12.948 204.706 113.652  0.00  0.00    +0.149 HD
BRANCH  24  26
ATOM     26  C   UNL A   1     -12.673 205.865 111.873  0.00  0.00    +0.135 C 
BRANCH  26  27
ATOM     27  C   UNL A   1     -14.070 205.442 111.413  0.00  0.00    +0.135 C 
ATOM     28  O   UNL A   1     -14.574 204.375 112.248  0.00  0.00    -0.375 OA
ATOM     29  C   UNL A   1     -15.958 204.637 112.530  0.00  0.00    +0.160 C 
ATOM     30  C   UNL A   1     -16.382 205.810 111.671  0.00  0.00    +0.030 C 
ATOM     31  C   UNL A   1     -15.089 206.568 111.505  0.00  0.00    +0.035 C 
ENDBRANCH  26  27
ENDBRANCH  24  26
ENDBRANCH  21  22
ENDBRANCH   3  21
TORSDOF 6
ENDMDL
MODEL 7
REMARK minimizedAffinity -9.37416458
REMARK minimizedRMSD -1
REMARK  Name = *****
REMARK  6 active torsions:
REMARK  status: ('A' for Active; 'I' for Inactive)
REMARK    1  A    between atoms: N_1  and  C_3
REMARK    2  A    between atoms: C_7  and  C_9
REMARK    3  A    between atoms: N_11  and  C_20
REMARK    4  A    between atoms: C_20  and  C_21
REMARK    5  A    between atoms: N_23  and  C_24
REMARK    6  A    between atoms: C_24  and  C_25
REMARK                            x       y       z     vdW  Elec       q    Type
REMARK                         _______ _______ _______ _____ _____    ______ ____
ROOT
ATOM      1  C   UNL A   1     -13.594 205.881 114.506  0.00  0.00    +0.099 A 
ATOM      2  N   UNL A   1     -13.912 204.836 115.232  0.00  0.00    -0.167 NA
ATOM      3  N   UNL A   1     -13.689 204.998 116.596  0.00  0.00    -0.220 N 
ATOM      4  C   UNL A   1     -13.625 206.279 117.127  0.00  0.00    +0.276 A 
ATOM      5  O   UNL A   1     -14.125 206.677 118.166  0.00  0.00    -0.266 OA
ATOM      6  C   UNL A   1     -12.632 207.058 116.394  0.00  0.00    +0.050 A 
ATOM      7  C   UNL A   1     -12.560 206.823 115.029  0.00  0.00    +0.015 A 
ATOM      8  C   UNL A   1     -11.409 207.193 114.333  0.00  0.00    +0.011 A 
ATOM      9  C   UNL A   1     -10.345 207.776 115.040  0.00  0.00    +0.001 A 
ATOM     10  C   UNL A   1     -10.427 207.989 116.425  0.00  0.00    +0.001 A 
ATOM     11  C   UNL A   1     -11.590 207.642 117.110  0.00  0.00    +0.014 A 
ENDROOT
BRANCH   1  16
ATOM     12  C   UNL A   1     -16.459 206.408 112.063  0.00  0.00    +0.076 A 
ATOM     13  C   UNL A   1     -15.800 206.307 110.831  0.00  0.00    +0.028 A 
ATOM     14  C   UNL A   1     -14.424 206.093 110.811  0.00  0.00    +0.003 A 
ATOM     15  C   UNL A   1     -13.710 206.012 112.011  0.00  0.00    +0.010 A 
ATOM     16  C   UNL A   1     -14.356 206.163 113.251  0.00  0.00    +0.005 A 
ATOM     17  C   UNL A   1     -15.747 206.339 113.272  0.00  0.00    +0.038 A 
BRANCH  12  18
ATOM     18  N   UNL A   1     -17.923 206.531 112.088  0.00  0.00    -0.187 N 
ATOM     19  O   UNL A   1     -18.452 207.301 111.275  0.00  0.00    -0.173 OA
ATOM     20  O   UNL A   1     -18.541 205.856 112.924  0.00  0.00    -0.777 OA
ENDBRANCH  12  18
ENDBRANCH   1  16
BRANCH   3  21
ATOM     21  C   UNL A   1     -13.297 203.906 117.464  0.00  0.00    +0.242 C 
BRANCH  21  22
ATOM     22  C   UNL A   1     -14.463 202.933 117.717  0.00  0.00    +0.235 C 
ATOM     23  O   UNL A   1     -14.785 202.070 116.901  0.00  0.00    -0.274 OA
ATOM     24  N   UNL A   1     -15.022 202.992 118.977  0.00  0.00    -0.311 N 
ATOM     25  H   UNL A   1     -14.909 203.866 119.485  0.00  0.00    +0.149 HD
BRANCH  24  26
ATOM     26  C   UNL A   1     -16.094 202.087 119.364  0.00  0.00    +0.135 C 
BRANCH  26  27
ATOM     27  C   UNL A   1     -17.481 202.709 119.192  0.00  0.00    +0.135 C 
ATOM     28  O   UNL A   1     -17.904 202.626 117.813  0.00  0.00    -0.375 OA
ATOM     29  C   UNL A   1     -19.290 202.250 117.787  0.00  0.00    +0.160 C 
ATOM     30  C   UNL A   1     -19.799 202.297 119.211  0.00  0.00    +0.030 C 
ATOM     31  C   UNL A   1     -18.553 202.001 120.007  0.00  0.00    +0.035 C 
ENDBRANCH  26  27
ENDBRANCH  24  26
ENDBRANCH  21  22
ENDBRANCH   3  21
TORSDOF 6
ENDMDL
MODEL 8
REMARK minimizedAffinity -9.28500462
REMARK minimizedRMSD -1
REMARK  Name = *****
REMARK  6 active torsions:
REMARK  status: ('A' for Active; 'I' for Inactive)
REMARK    1  A    between atoms: N_1  and  C_3
REMARK    2  A    between atoms: C_7  and  C_9
REMARK    3  A    between atoms: N_11  and  C_20
REMARK    4  A    between atoms: C_20  and  C_21
REMARK    5  A    between atoms: N_23  and  C_24
REMARK    6  A    between atoms: C_24  and  C_25
REMARK                            x       y       z     vdW  Elec       q    Type
REMARK                         _______ _______ _______ _____ _____    ______ ____
ROOT
ATOM      1  C   UNL A   1     -13.127 206.494 114.424  0.00  0.00    +0.099 A 
ATOM      2  N   UNL A   1     -12.499 207.611 114.704  0.00  0.00    -0.167 NA
ATOM      3  N   UNL A   1     -11.250 207.433 115.290  0.00  0.00    -0.220 N 
ATOM      4  C   UNL A   1     -10.581 206.230 115.112  0.00  0.00    +0.276 A 
ATOM      5  O   UNL A   1      -9.396 206.068 114.873  0.00  0.00    -0.266 OA
ATOM      6  C   UNL A   1     -11.449 205.129 115.517  0.00  0.00    +0.050 A 
ATOM      7  C   UNL A   1     -12.796 205.274 115.217  0.00  0.00    +0.015 A 
ATOM      8  C   UNL A   1     -13.734 204.503 115.905  0.00  0.00    +0.011 A 
ATOM      9  C   UNL A   1     -13.288 203.615 116.896  0.00  0.00    +0.001 A 
ATOM     10  C   UNL A   1     -11.923 203.495 117.201  0.00  0.00    +0.001 A 
ATOM     11  C   UNL A   1     -10.989 204.249 116.492  0.00  0.00    +0.014 A 
ENDROOT
BRANCH   1  16
ATOM     12  C   UNL A   1     -16.295 206.265 112.334  0.00  0.00    +0.076 A 
ATOM     13  C   UNL A   1     -15.776 205.969 111.068  0.00  0.00    +0.028 A 
ATOM     14  C   UNL A   1     -14.396 205.871 110.903  0.00  0.00    +0.003 A 
ATOM     15  C   UNL A   1     -13.543 206.099 111.989  0.00  0.00    +0.010 A 
ATOM     16  C   UNL A   1     -14.055 206.447 113.252  0.00  0.00    +0.005 A 
ATOM     17  C   UNL A   1     -15.444 206.507 113.426  0.00  0.00    +0.038 A 
BRANCH  12  18
ATOM     18  N   UNL A   1     -17.751 206.269 112.532  0.00  0.00    -0.187 N 
ATOM     19  O   UNL A   1     -18.425 207.053 111.851  0.00  0.00    -0.173 OA
ATOM     20  O   UNL A   1     -18.218 205.485 113.371  0.00  0.00    -0.777 OA
ENDBRANCH  12  18
ENDBRANCH   1  16
BRANCH   3  21
ATOM     21  C   UNL A   1     -10.699 208.355 116.263  0.00  0.00    +0.242 C 
BRANCH  21  22
ATOM     22  C   UNL A   1     -11.060 207.947 117.703  0.00  0.00    +0.235 C 
ATOM     23  O   UNL A   1     -10.216 207.889 118.597  0.00  0.00    -0.274 OA
ATOM     24  N   UNL A   1     -12.407 207.798 117.959  0.00  0.00    -0.311 N 
ATOM     25  H   UNL A   1     -13.003 207.594 117.159  0.00  0.00    +0.149 HD
BRANCH  24  26
ATOM     26  C   UNL A   1     -12.885 207.470 119.294  0.00  0.00    +0.135 C 
BRANCH  26  27
ATOM     27  C   UNL A   1     -12.893 205.963 119.562  0.00  0.00    +0.135 C 
ATOM     28  O   UNL A   1     -11.980 205.636 120.633  0.00  0.00    -0.375 OA
ATOM     29  C   UNL A   1     -12.611 204.668 121.485  0.00  0.00    +0.160 C 
ATOM     30  C   UNL A   1     -13.889 204.228 120.803  0.00  0.00    +0.030 C 
ATOM     31  C   UNL A   1     -14.257 205.448 119.996  0.00  0.00    +0.035 C 
ENDBRANCH  26  27
ENDBRANCH  24  26
ENDBRANCH  21  22
ENDBRANCH   3  21
TORSDOF 6
ENDMDL
MODEL 9
REMARK minimizedAffinity -9.20586014
REMARK minimizedRMSD -1
REMARK  Name = *****
REMARK  6 active torsions:
REMARK  status: ('A' for Active; 'I' for Inactive)
REMARK    1  A    between atoms: N_1  and  C_3
REMARK    2  A    between atoms: C_7  and  C_9
REMARK    3  A    between atoms: N_11  and  C_20
REMARK    4  A    between atoms: C_20  and  C_21
REMARK    5  A    between atoms: N_23  and  C_24
REMARK    6  A    between atoms: C_24  and  C_25
REMARK                            x       y       z     vdW  Elec       q    Type
REMARK                         _______ _______ _______ _____ _____    ______ ____
ROOT
ATOM      1  C   UNL A   1     -14.474 204.600 114.578  0.00  0.00    +0.099 A 
ATOM      2  N   UNL A   1     -15.238 203.738 115.206  0.00  0.00    -0.167 NA
ATOM      3  N   UNL A   1     -14.962 203.613 116.564  0.00  0.00    -0.220 N 
ATOM      4  C   UNL A   1     -14.311 204.646 117.224  0.00  0.00    +0.276 A 
ATOM      5  O   UNL A   1     -14.567 205.099 118.326  0.00  0.00    -0.266 OA
ATOM      6  C   UNL A   1     -13.072 204.964 116.521  0.00  0.00    +0.050 A 
ATOM      7  C   UNL A   1     -13.121 204.890 115.137  0.00  0.00    +0.015 A 
ATOM      8  C   UNL A   1     -11.930 204.772 114.419  0.00  0.00    +0.011 A 
ATOM      9  C   UNL A   1     -10.716 204.710 115.120  0.00  0.00    +0.001 A 
ATOM     10  C   UNL A   1     -10.686 204.767 116.522  0.00  0.00    +0.001 A 
ATOM     11  C   UNL A   1     -11.876 204.912 117.233  0.00  0.00    +0.014 A 
ENDROOT
BRANCH   1  16
ATOM     12  C   UNL A   1     -16.905 206.241 112.158  0.00  0.00    +0.076 A 
ATOM     13  C   UNL A   1     -16.099 206.417 111.026  0.00  0.00    +0.028 A 
ATOM     14  C   UNL A   1     -14.764 206.022 111.073  0.00  0.00    +0.003 A 
ATOM     15  C   UNL A   1     -14.233 205.484 112.251  0.00  0.00    +0.010 A 
ATOM     16  C   UNL A   1     -15.022 205.351 113.407  0.00  0.00    +0.005 A 
ATOM     17  C   UNL A   1     -16.376 205.713 113.348  0.00  0.00    +0.038 A 
BRANCH  12  18
ATOM     18  N   UNL A   1     -18.336 206.563 112.080  0.00  0.00    -0.187 N 
ATOM     19  O   UNL A   1     -19.107 205.953 112.834  0.00  0.00    -0.173 OA
ATOM     20  O   UNL A   1     -18.687 207.426 111.262  0.00  0.00    -0.777 OA
ENDBRANCH  12  18
ENDBRANCH   1  16
BRANCH   3  21
ATOM     21  C   UNL A   1     -15.119 202.366 117.285  0.00  0.00    +0.242 C 
BRANCH  21  22
ATOM     22  C   UNL A   1     -16.505 202.259 117.945  0.00  0.00    +0.235 C 
ATOM     23  O   UNL A   1     -17.546 202.312 117.292  0.00  0.00    -0.274 OA
ATOM     24  N   UNL A   1     -16.501 201.950 119.290  0.00  0.00    -0.311 N 
ATOM     25  H   UNL A   1     -15.657 202.183 119.808  0.00  0.00    +0.149 HD
BRANCH  24  26
ATOM     26  C   UNL A   1     -17.746 201.764 120.020  0.00  0.00    +0.135 C 
BRANCH  26  27
ATOM     27  C   UNL A   1     -18.452 203.087 120.325  0.00  0.00    +0.135 C 
ATOM     28  O   UNL A   1     -19.831 203.034 119.898  0.00  0.00    -0.375 OA
ATOM     29  C   UNL A   1     -20.643 203.646 120.912  0.00  0.00    +0.160 C 
ATOM     30  C   UNL A   1     -19.708 204.283 121.918  0.00  0.00    +0.030 C 
ATOM     31  C   UNL A   1     -18.482 203.412 121.811  0.00  0.00    +0.035 C 
ENDBRANCH  26  27
ENDBRANCH  24  26
ENDBRANCH  21  22
ENDBRANCH   3  21
TORSDOF 6
ENDMDL
