MODEL 1
REMARK minimizedAffinity -8.74044132
REMARK minimizedRMSD -1
REMARK  Name = *****
REMARK  2 active torsions:
REMARK  status: ('A' for Active; 'I' for Inactive)
REMARK    1  A    between atoms: C_11  and  C_13
REMARK    2  A    between atoms: C_13  and  N_14
REMARK                            x       y       z     vdW  Elec       q    Type
REMARK                         _______ _______ _______ _____ _____    ______ ____
ROOT
ATOM      1  N   UNL A   1     -14.160 205.770 114.457  0.00  0.00    -0.270 N 
ATOM      2  C   UNL A   1     -14.141 205.944 113.023  0.00  0.00    +0.040 A 
ATOM      3  C   UNL A   1     -15.296 206.259 112.290  0.00  0.00    +0.024 A 
ATOM      4  C   UNL A   1     -15.262 206.397 110.897  0.00  0.00    +0.002 A 
ATOM      5  C   UNL A   1     -14.070 206.232 110.210  0.00  0.00    +0.000 A 
ATOM      6  C   UNL A   1     -12.904 205.950 110.915  0.00  0.00    +0.005 A 
ATOM      7  C   UNL A   1     -12.926 205.808 112.315  0.00  0.00    -0.026 A 
ATOM      8  C   UNL A   1     -11.614 205.523 113.002  0.00  0.00    +0.038 C 
ATOM      9  C   UNL A   1     -11.784 205.095 114.447  0.00  0.00    +0.024 C 
ATOM     10  C   UNL A   1     -12.849 205.945 115.107  0.00  0.00    +0.114 C 
ATOM     11  C   UNL A   1     -15.326 205.401 115.150  0.00  0.00    +0.241 C 
ATOM     12  O   UNL A   1     -16.418 205.174 114.616  0.00  0.00    -0.273 OA
ENDROOT
BRANCH  11  13
ATOM     13  C   UNL A   1     -15.254 205.215 116.654  0.00  0.00    +0.239 C 
BRANCH  13  14
ATOM     14  N   UNL A   1     -15.400 203.815 117.012  0.00  0.00    -0.261 N 
ATOM     15  C   UNL A   1     -14.392 202.903 117.187  0.00  0.00    +0.111 A 
ATOM     16  C   UNL A   1     -15.000 201.719 117.542  0.00  0.00    +0.070 A 
ATOM     17  C   UNL A   1     -16.379 202.010 117.533  0.00  0.00    +0.185 A 
ATOM     18  N   UNL A   1     -16.631 203.279 117.163  0.00  0.00    -0.150 NA
ATOM     19  N   UNL A   1     -17.488 201.133 117.870  0.00  0.00    -0.166 N 
ATOM     20  O   UNL A   1     -17.187 199.977 118.209  0.00  0.00    -0.171 OA
ATOM     21  O   UNL A   1     -18.642 201.584 117.807  0.00  0.00    -0.776 OA
ENDBRANCH  13  14
ENDBRANCH  11  13
TORSDOF 2
ENDMDL
MODEL 2
REMARK minimizedAffinity -8.59974861
REMARK minimizedRMSD -1
REMARK  Name = *****
REMARK  2 active torsions:
REMARK  status: ('A' for Active; 'I' for Inactive)
REMARK    1  A    between atoms: C_11  and  C_13
REMARK    2  A    between atoms: C_13  and  N_14
REMARK                            x       y       z     vdW  Elec       q    Type
REMARK                         _______ _______ _______ _____ _____    ______ ____
ROOT
ATOM      1  N   UNL A   1     -13.831 206.098 113.199  0.00  0.00    -0.270 N 
ATOM      2  C   UNL A   1     -12.704 206.365 112.334  0.00  0.00    +0.040 A 
ATOM      3  C   UNL A   1     -11.423 206.640 112.835  0.00  0.00    +0.024 A 
ATOM      4  C   UNL A   1     -10.350 206.923 111.981  0.00  0.00    +0.002 A 
ATOM      5  C   UNL A   1     -10.535 206.926 110.607  0.00  0.00    +0.000 A 
ATOM      6  C   UNL A   1     -11.788 206.625 110.083  0.00  0.00    +0.005 A 
ATOM      7  C   UNL A   1     -12.875 206.340 110.931  0.00  0.00    -0.026 A 
ATOM      8  C   UNL A   1     -14.192 206.005 110.279  0.00  0.00    +0.038 C 
ATOM      9  C   UNL A   1     -15.353 206.010 111.255  0.00  0.00    +0.024 C 
ATOM     10  C   UNL A   1     -14.929 205.357 112.554  0.00  0.00    +0.114 C 
ATOM     11  C   UNL A   1     -13.887 206.570 114.521  0.00  0.00    +0.241 C 
ATOM     12  O   UNL A   1     -13.011 207.260 115.058  0.00  0.00    -0.273 OA
ENDROOT
BRANCH  11  13
ATOM     13  C   UNL A   1     -15.117 206.267 115.355  0.00  0.00    +0.239 C 
BRANCH  13  14
ATOM     14  N   UNL A   1     -14.958 205.018 116.080  0.00  0.00    -0.261 N 
ATOM     15  C   UNL A   1     -13.780 204.463 116.511  0.00  0.00    +0.111 A 
ATOM     16  C   UNL A   1     -14.119 203.301 117.169  0.00  0.00    +0.070 A 
ATOM     17  C   UNL A   1     -15.523 203.229 117.063  0.00  0.00    +0.185 A 
ATOM     18  N   UNL A   1     -16.036 204.253 116.357  0.00  0.00    -0.150 NA
ATOM     19  N   UNL A   1     -16.417 202.224 117.614  0.00  0.00    -0.166 N 
ATOM     20  O   UNL A   1     -15.881 201.309 118.259  0.00  0.00    -0.171 OA
ATOM     21  O   UNL A   1     -17.636 202.342 117.416  0.00  0.00    -0.776 OA
ENDBRANCH  13  14
ENDBRANCH  11  13
TORSDOF 2
ENDMDL
MODEL 3
REMARK minimizedAffinity -8.18198109
REMARK minimizedRMSD -1
REMARK  Name = *****
REMARK  2 active torsions:
REMARK  status: ('A' for Active; 'I' for Inactive)
REMARK    1  A    between atoms: C_11  and  C_13
REMARK    2  A    between atoms: C_13  and  N_14
REMARK                            x       y       z     vdW  Elec       q    Type
REMARK                         _______ _______ _______ _____ _____    ______ ____
ROOT
ATOM      1  N   UNL A   1     -13.398 204.842 114.692  0.00  0.00    -0.270 N 
ATOM      2  C   UNL A   1     -12.964 205.239 116.012  0.00  0.00    +0.040 A 
ATOM      3  C   UNL A   1     -13.394 204.580 117.173  0.00  0.00    +0.024 A 
ATOM      4  C   UNL A   1     -12.983 204.997 118.445  0.00  0.00    +0.002 A 
ATOM      5  C   UNL A   1     -12.125 206.078 118.580  0.00  0.00    +0.000 A 
ATOM      6  C   UNL A   1     -11.658 206.729 117.443  0.00  0.00    +0.005 A 
ATOM      7  C   UNL A   1     -12.065 206.319 116.159  0.00  0.00    -0.026 A 
ATOM      8  C   UNL A   1     -11.495 207.068 114.981  0.00  0.00    +0.038 C 
ATOM      9  C   UNL A   1     -12.211 206.758 113.681  0.00  0.00    +0.024 C 
ATOM     10  C   UNL A   1     -12.504 205.274 113.603  0.00  0.00    +0.114 C 
ATOM     11  C   UNL A   1     -14.607 204.158 114.477  0.00  0.00    +0.241 C 
ATOM     12  O   UNL A   1     -15.409 203.854 115.368  0.00  0.00    -0.273 OA
ENDROOT
BRANCH  11  13
ATOM     13  C   UNL A   1     -15.001 203.799 113.057  0.00  0.00    +0.239 C 
BRANCH  13  14
ATOM     14  N   UNL A   1     -15.741 204.883 112.433  0.00  0.00    -0.261 N 
ATOM     15  C   UNL A   1     -15.273 205.759 111.488  0.00  0.00    +0.111 A 
ATOM     16  C   UNL A   1     -16.328 206.589 111.176  0.00  0.00    +0.070 A 
ATOM     17  C   UNL A   1     -17.382 206.149 112.001  0.00  0.00    +0.185 A 
ATOM     18  N   UNL A   1     -17.014 205.136 112.806  0.00  0.00    -0.150 NA
ATOM     19  N   UNL A   1     -18.747 206.646 112.061  0.00  0.00    -0.166 N 
ATOM     20  O   UNL A   1     -19.024 207.578 111.289  0.00  0.00    -0.171 OA
ATOM     21  O   UNL A   1     -19.537 206.117 112.857  0.00  0.00    -0.776 OA
ENDBRANCH  13  14
ENDBRANCH  11  13
TORSDOF 2
ENDMDL
MODEL 4
REMARK minimizedAffinity -8.05926514
REMARK minimizedRMSD -1
REMARK  Name = *****
REMARK  2 active torsions:
REMARK  status: ('A' for Active; 'I' for Inactive)
REMARK    1  A    between atoms: C_11  and  C_13
REMARK    2  A    between atoms: C_13  and  N_14
REMARK                            x       y       z     vdW  Elec       q    Type
REMARK                         _______ _______ _______ _____ _____    ______ ____
ROOT
ATOM      1  N   UNL A   1     -12.963 205.824 113.010  0.00  0.00    -0.270 N 
ATOM      2  C   UNL A   1     -14.394 205.915 112.821  0.00  0.00    +0.040 A 
ATOM      3  C   UNL A   1     -15.299 205.796 113.886  0.00  0.00    +0.024 A 
ATOM      4  C   UNL A   1     -16.683 205.860 113.679  0.00  0.00    +0.002 A 
ATOM      5  C   UNL A   1     -17.188 206.053 112.403  0.00  0.00    +0.000 A 
ATOM      6  C   UNL A   1     -16.310 206.206 111.334  0.00  0.00    +0.005 A 
ATOM      7  C   UNL A   1     -14.918 206.143 111.529  0.00  0.00    -0.026 A 
ATOM      8  C   UNL A   1     -14.040 206.339 110.319  0.00  0.00    +0.038 C 
ATOM      9  C   UNL A   1     -12.594 205.960 110.571  0.00  0.00    +0.024 C 
ATOM     10  C   UNL A   1     -12.169 206.451 111.939  0.00  0.00    +0.114 C 
ATOM     11  C   UNL A   1     -12.395 205.134 114.094  0.00  0.00    +0.241 C 
ATOM     12  O   UNL A   1     -13.041 204.534 114.961  0.00  0.00    -0.273 OA
ENDROOT
BRANCH  11  13
ATOM     13  C   UNL A   1     -10.883 205.066 114.205  0.00  0.00    +0.239 C 
BRANCH  13  14
ATOM     14  N   UNL A   1     -10.338 206.333 114.661  0.00  0.00    -0.261 N 
ATOM     15  C   UNL A   1     -10.853 207.143 115.639  0.00  0.00    +0.111 A 
ATOM     16  C   UNL A   1      -9.993 208.214 115.745  0.00  0.00    +0.070 A 
ATOM     17  C   UNL A   1      -9.001 207.972 114.774  0.00  0.00    +0.185 A 
ATOM     18  N   UNL A   1      -9.235 206.846 114.075  0.00  0.00    -0.150 NA
ATOM     19  N   UNL A   1      -7.820 208.764 114.474  0.00  0.00    -0.166 N 
ATOM     20  O   UNL A   1      -7.661 209.788 115.158  0.00  0.00    -0.171 OA
ATOM     21  O   UNL A   1      -7.057 208.375 113.577  0.00  0.00    -0.776 OA
ENDBRANCH  13  14
ENDBRANCH  11  13
TORSDOF 2
ENDMDL
MODEL 5
REMARK minimizedAffinity -7.85456944
REMARK minimizedRMSD -1
REMARK  Name = *****
REMARK  2 active torsions:
REMARK  status: ('A' for Active; 'I' for Inactive)
REMARK    1  A    between atoms: C_11  and  C_13
REMARK    2  A    between atoms: C_13  and  N_14
REMARK                            x       y       z     vdW  Elec       q    Type
REMARK                         _______ _______ _______ _____ _____    ______ ____
ROOT
ATOM      1  N   UNL A   1     -13.620 206.137 115.214  0.00  0.00    -0.270 N 
ATOM      2  C   UNL A   1     -12.339 206.724 115.536  0.00  0.00    +0.040 A 
ATOM      3  C   UNL A   1     -11.287 206.782 114.610  0.00  0.00    +0.024 A 
ATOM      4  C   UNL A   1     -10.044 207.330 114.949  0.00  0.00    +0.002 A 
ATOM      5  C   UNL A   1      -9.832 207.841 116.220  0.00  0.00    +0.000 A 
ATOM      6  C   UNL A   1     -10.868 207.825 117.148  0.00  0.00    +0.005 A 
ATOM      7  C   UNL A   1     -12.121 207.276 116.819  0.00  0.00    -0.026 A 
ATOM      8  C   UNL A   1     -13.195 207.318 117.877  0.00  0.00    +0.038 C 
ATOM      9  C   UNL A   1     -14.391 206.448 117.541  0.00  0.00    +0.024 C 
ATOM     10  C   UNL A   1     -14.728 206.593 116.072  0.00  0.00    +0.114 C 
ATOM     11  C   UNL A   1     -13.766 205.166 114.209  0.00  0.00    +0.241 C 
ATOM     12  O   UNL A   1     -12.836 204.713 113.531  0.00  0.00    -0.273 OA
ENDROOT
BRANCH  11  13
ATOM     13  C   UNL A   1     -15.142 204.583 113.951  0.00  0.00    +0.239 C 
BRANCH  13  14
ATOM     14  N   UNL A   1     -15.876 205.389 112.991  0.00  0.00    -0.261 N 
ATOM     15  C   UNL A   1     -15.370 205.993 111.869  0.00  0.00    +0.111 A 
ATOM     16  C   UNL A   1     -16.432 206.622 111.257  0.00  0.00    +0.070 A 
ATOM     17  C   UNL A   1     -17.533 206.359 112.097  0.00  0.00    +0.185 A 
ATOM     18  N   UNL A   1     -17.188 205.645 113.184  0.00  0.00    -0.150 NA
ATOM     19  N   UNL A   1     -18.920 206.753 111.914  0.00  0.00    -0.166 N 
ATOM     20  O   UNL A   1     -19.173 207.405 110.889  0.00  0.00    -0.171 OA
ATOM     21  O   UNL A   1     -19.751 206.414 112.770  0.00  0.00    -0.776 OA
ENDBRANCH  13  14
ENDBRANCH  11  13
TORSDOF 2
ENDMDL
MODEL 6
REMARK minimizedAffinity -7.75761986
REMARK minimizedRMSD -1
REMARK  Name = *****
REMARK  2 active torsions:
REMARK  status: ('A' for Active; 'I' for Inactive)
REMARK    1  A    between atoms: C_11  and  C_13
REMARK    2  A    between atoms: C_13  and  N_14
REMARK                            x       y       z     vdW  Elec       q    Type
REMARK                         _______ _______ _______ _____ _____    ______ ____
ROOT
ATOM      1  N   UNL A   1     -13.820 206.261 113.126  0.00  0.00    -0.270 N 
ATOM      2  C   UNL A   1     -12.714 206.448 112.214  0.00  0.00    +0.040 A 
ATOM      3  C   UNL A   1     -11.411 206.712 112.660  0.00  0.00    +0.024 A 
ATOM      4  C   UNL A   1     -10.358 206.917 111.760  0.00  0.00    +0.002 A 
ATOM      5  C   UNL A   1     -10.587 206.853 110.394  0.00  0.00    +0.000 A 
ATOM      6  C   UNL A   1     -11.864 206.561 109.925  0.00  0.00    +0.005 A 
ATOM      7  C   UNL A   1     -12.930 206.354 110.820  0.00  0.00    -0.026 A 
ATOM      8  C   UNL A   1     -14.276 206.023 110.228  0.00  0.00    +0.038 C 
ATOM      9  C   UNL A   1     -15.405 206.114 111.237  0.00  0.00    +0.024 C 
ATOM     10  C   UNL A   1     -14.958 205.519 112.555  0.00  0.00    +0.114 C 
ATOM     11  C   UNL A   1     -13.820 206.804 114.422  0.00  0.00    +0.241 C 
ATOM     12  O   UNL A   1     -12.909 207.495 114.893  0.00  0.00    -0.273 OA
ENDROOT
BRANCH  11  13
ATOM     13  C   UNL A   1     -15.031 206.581 115.307  0.00  0.00    +0.239 C 
BRANCH  13  14
ATOM     14  N   UNL A   1     -14.694 205.742 116.446  0.00  0.00    -0.261 N 
ATOM     15  C   UNL A   1     -14.666 204.372 116.476  0.00  0.00    +0.111 A 
ATOM     16  C   UNL A   1     -14.271 204.023 117.748  0.00  0.00    +0.070 A 
ATOM     17  C   UNL A   1     -14.105 205.251 118.420  0.00  0.00    +0.185 A 
ATOM     18  N   UNL A   1     -14.409 206.304 117.640  0.00  0.00    -0.150 NA
ATOM     19  N   UNL A   1     -13.660 205.479 119.784  0.00  0.00    -0.166 N 
ATOM     20  O   UNL A   1     -13.390 204.466 120.448  0.00  0.00    -0.171 OA
ATOM     21  O   UNL A   1     -13.571 206.647 120.192  0.00  0.00    -0.776 OA
ENDBRANCH  13  14
ENDBRANCH  11  13
TORSDOF 2
ENDMDL
MODEL 7
REMARK minimizedAffinity -7.75337744
REMARK minimizedRMSD -1
REMARK  Name = *****
REMARK  2 active torsions:
REMARK  status: ('A' for Active; 'I' for Inactive)
REMARK    1  A    between atoms: C_11  and  C_13
REMARK    2  A    between atoms: C_13  and  N_14
REMARK                            x       y       z     vdW  Elec       q    Type
REMARK                         _______ _______ _______ _____ _____    ______ ____
ROOT
ATOM      1  N   UNL A   1     -13.907 205.425 114.695  0.00  0.00    -0.270 N 
ATOM      2  C   UNL A   1     -14.767 205.732 113.575  0.00  0.00    +0.040 A 
ATOM      3  C   UNL A   1     -16.159 205.843 113.707  0.00  0.00    +0.024 A 
ATOM      4  C   UNL A   1     -16.978 206.115 112.604  0.00  0.00    +0.002 A 
ATOM      5  C   UNL A   1     -16.419 206.289 111.348  0.00  0.00    +0.000 A 
ATOM      6  C   UNL A   1     -15.038 206.215 111.195  0.00  0.00    +0.005 A 
ATOM      7  C   UNL A   1     -14.205 205.942 112.295  0.00  0.00    -0.026 A 
ATOM      8  C   UNL A   1     -12.719 205.899 112.044  0.00  0.00    +0.038 C 
ATOM      9  C   UNL A   1     -11.940 205.311 113.205  0.00  0.00    +0.024 C 
ATOM     10  C   UNL A   1     -12.503 205.831 114.511  0.00  0.00    +0.114 C 
ATOM     11  C   UNL A   1     -14.373 204.738 115.829  0.00  0.00    +0.241 C 
ATOM     12  O   UNL A   1     -15.528 204.319 115.971  0.00  0.00    -0.273 OA
ENDROOT
BRANCH  11  13
ATOM     13  C   UNL A   1     -13.398 204.434 116.951  0.00  0.00    +0.239 C 
BRANCH  13  14
ATOM     14  N   UNL A   1     -13.550 205.382 118.042  0.00  0.00    -0.261 N 
ATOM     15  C   UNL A   1     -13.013 206.641 118.116  0.00  0.00    +0.111 A 
ATOM     16  C   UNL A   1     -13.444 207.175 119.311  0.00  0.00    +0.070 A 
ATOM     17  C   UNL A   1     -14.217 206.154 119.898  0.00  0.00    +0.185 A 
ATOM     18  N   UNL A   1     -14.246 205.038 119.146  0.00  0.00    -0.150 NA
ATOM     19  N   UNL A   1     -14.948 206.186 121.154  0.00  0.00    -0.166 N 
ATOM     20  O   UNL A   1     -14.885 207.247 121.795  0.00  0.00    -0.171 OA
ATOM     21  O   UNL A   1     -15.583 205.178 121.497  0.00  0.00    -0.776 OA
ENDBRANCH  13  14
ENDBRANCH  11  13
TORSDOF 2
ENDMDL
MODEL 8
REMARK minimizedAffinity -7.71597433
REMARK minimizedRMSD -1
REMARK  Name = *****
REMARK  2 active torsions:
REMARK  status: ('A' for Active; 'I' for Inactive)
REMARK    1  A    between atoms: C_11  and  C_13
REMARK    2  A    between atoms: C_13  and  N_14
REMARK                            x       y       z     vdW  Elec       q    Type
REMARK                         _______ _______ _______ _____ _____    ______ ____
ROOT
ATOM      1  N   UNL A   1     -13.401 205.443 114.182  0.00  0.00    -0.270 N 
ATOM      2  C   UNL A   1     -14.494 205.728 113.281  0.00  0.00    +0.040 A 
ATOM      3  C   UNL A   1     -15.828 205.780 113.713  0.00  0.00    +0.024 A 
ATOM      4  C   UNL A   1     -16.877 206.031 112.820  0.00  0.00    +0.002 A 
ATOM      5  C   UNL A   1     -16.610 206.244 111.476  0.00  0.00    +0.000 A 
ATOM      6  C   UNL A   1     -15.293 206.229 111.027  0.00  0.00    +0.005 A 
ATOM      7  C   UNL A   1     -14.232 205.977 111.915  0.00  0.00    -0.026 A 
ATOM      8  C   UNL A   1     -12.835 206.000 111.348  0.00  0.00    +0.038 C 
ATOM      9  C   UNL A   1     -11.801 205.430 112.300  0.00  0.00    +0.024 C 
ATOM     10  C   UNL A   1     -12.086 205.910 113.708  0.00  0.00    +0.114 C 
ATOM     11  C   UNL A   1     -13.584 204.722 115.375  0.00  0.00    +0.241 C 
ATOM     12  O   UNL A   1     -14.664 204.255 115.754  0.00  0.00    -0.273 OA
ENDROOT
BRANCH  11  13
ATOM     13  C   UNL A   1     -12.378 204.445 116.253  0.00  0.00    +0.239 C 
BRANCH  13  14
ATOM     14  N   UNL A   1     -12.155 205.536 117.187  0.00  0.00    -0.261 N 
ATOM     15  C   UNL A   1     -13.111 206.242 117.869  0.00  0.00    +0.111 A 
ATOM     16  C   UNL A   1     -12.435 207.153 118.650  0.00  0.00    +0.070 A 
ATOM     17  C   UNL A   1     -11.074 206.935 118.353  0.00  0.00    +0.185 A 
ATOM     18  N   UNL A   1     -10.901 205.979 117.423  0.00  0.00    -0.150 NA
ATOM     19  N   UNL A   1      -9.911 207.596 118.922  0.00  0.00    -0.166 N 
ATOM     20  O   UNL A   1     -10.139 208.464 119.778  0.00  0.00    -0.171 OA
ATOM     21  O   UNL A   1      -8.784 207.254 118.530  0.00  0.00    -0.776 OA
ENDBRANCH  13  14
ENDBRANCH  11  13
TORSDOF 2
ENDMDL
MODEL 9
REMARK minimizedAffinity -7.68035936
REMARK minimizedRMSD -1
REMARK  Name = *****
REMARK  2 active torsions:
REMARK  status: ('A' for Active; 'I' for Inactive)
REMARK    1  A    between atoms: C_11  and  C_13
REMARK    2  A    between atoms: C_13  and  N_14
REMARK                            x       y       z     vdW  Elec       q    Type
REMARK                         _______ _______ _______ _____ _____    ______ ____
ROOT
ATOM      1  N   UNL A   1     -12.871 207.078 114.101  0.00  0.00    -0.270 N 
ATOM      2  C   UNL A   1     -13.988 206.467 113.416  0.00  0.00    +0.040 A 
ATOM      3  C   UNL A   1     -15.319 206.797 113.712  0.00  0.00    +0.024 A 
ATOM      4  C   UNL A   1     -16.389 206.174 113.056  0.00  0.00    +0.002 A 
ATOM      5  C   UNL A   1     -16.147 205.216 112.084  0.00  0.00    +0.000 A 
ATOM      6  C   UNL A   1     -14.835 204.894 111.749  0.00  0.00    +0.005 A 
ATOM      7  C   UNL A   1     -13.753 205.512 112.402  0.00  0.00    -0.026 A 
ATOM      8  C   UNL A   1     -12.364 205.119 111.963  0.00  0.00    +0.038 C 
ATOM      9  C   UNL A   1     -11.285 205.603 112.912  0.00  0.00    +0.024 C 
ATOM     10  C   UNL A   1     -11.598 207.015 113.361  0.00  0.00    +0.114 C 
ATOM     11  C   UNL A   1     -12.992 207.622 115.391  0.00  0.00    +0.241 C 
ATOM     12  O   UNL A   1     -14.031 207.616 116.060  0.00  0.00    -0.273 OA
ENDROOT
BRANCH  11  13
ATOM     13  C   UNL A   1     -11.764 208.223 116.048  0.00  0.00    +0.239 C 
BRANCH  13  14
ATOM     14  N   UNL A   1     -11.265 207.358 117.104  0.00  0.00    -0.261 N 
ATOM     15  C   UNL A   1     -10.664 207.751 118.272  0.00  0.00    +0.111 A 
ATOM     16  C   UNL A   1     -10.386 206.596 118.970  0.00  0.00    +0.070 A 
ATOM     17  C   UNL A   1     -10.836 205.556 118.132  0.00  0.00    +0.185 A 
ATOM     18  N   UNL A   1     -11.331 206.016 116.969  0.00  0.00    -0.150 NA
ATOM     19  N   UNL A   1     -10.825 204.125 118.386  0.00  0.00    -0.166 N 
ATOM     20  O   UNL A   1     -10.360 203.768 119.480  0.00  0.00    -0.171 OA
ATOM     21  O   UNL A   1     -11.277 203.365 117.517  0.00  0.00    -0.776 OA
ENDBRANCH  13  14
ENDBRANCH  11  13
TORSDOF 2
ENDMDL
