MODEL 1
REMARK minimizedAffinity -9.00459862
REMARK minimizedRMSD -1
REMARK  Name = *****
REMARK  10 active torsions:
REMARK  status: ('A' for Active; 'I' for Inactive)
REMARK    1  A    between atoms: N_4  and  N_5
REMARK    2  A    between atoms: N_5  and  C_6
REMARK    3  A    between atoms: C_9  and  S_10
REMARK    4  A    between atoms: S_10  and  N_13
REMARK    5  A    between atoms: C_21  and  C_23
REMARK    6  A    between atoms: C_23  and  O_25
REMARK    7  A    between atoms: O_25  and  C_26
REMARK    8  A    between atoms: C_26  and  C_27
REMARK    9  A    between atoms: C_27  and  C_28
REMARK   10  A    between atoms: C_27  and  C_29
REMARK                            x       y       z     vdW  Elec       q    Type
REMARK                         _______ _______ _______ _____ _____    ______ ____
ROOT
ATOM      1  O   UNL A   1     -10.455 205.263 117.580  0.00  0.00    -0.268 OA
ATOM      2  C   UNL A   1     -10.617 205.476 116.395  0.00  0.00    +0.269 C 
ATOM      3  C   UNL A   1     -11.874 205.120 115.589  0.00  0.00    +0.152 C 
ATOM      4  N   UNL A   1     -12.959 204.549 116.001  0.00  0.00    -0.177 NA
ATOM      5  C   UNL A   1     -11.623 205.582 114.228  0.00  0.00    +0.029 A 
ATOM      6  C   UNL A   1     -10.355 206.164 114.239  0.00  0.00    +0.043 A 
ATOM      7  N   UNL A   1      -9.771 206.089 115.502  0.00  0.00    -0.280 N 
ATOM      8  C   UNL A   1      -9.823 206.744 113.112  0.00  0.00    +0.025 A 
ATOM      9  C   UNL A   1     -10.610 206.729 111.953  0.00  0.00    +0.017 A 
ATOM     10  C   UNL A   1     -11.902 206.137 111.934  0.00  0.00    +0.060 A 
ATOM     11  C   UNL A   1     -12.418 205.545 113.096  0.00  0.00    +0.027 A 
ATOM     12  H   UNL A   1      -8.863 206.451 115.760  0.00  0.00    +0.155 HD
ENDROOT
BRANCH   4  13
ATOM     13  N   UNL A   1     -12.992 204.218 117.317  0.00  0.00    -0.237 N 
ATOM     14  H   UNL A   1     -12.366 204.662 117.996  0.00  0.00    +0.174 HD
BRANCH  13  15
ATOM     15  C   UNL A   1     -14.096 203.519 117.835  0.00  0.00    +0.048 A 
ATOM     16  C   UNL A   1     -14.716 202.482 117.125  0.00  0.00    +0.026 A 
ATOM     17  C   UNL A   1     -15.776 201.767 117.679  0.00  0.00    +0.030 A 
ATOM     18  C   UNL A   1     -16.222 202.084 118.965  0.00  0.00    +0.105 A 
ATOM     19  C   UNL A   1     -15.634 203.126 119.682  0.00  0.00    +0.030 A 
ATOM     20  C   UNL A   1     -14.567 203.832 119.119  0.00  0.00    +0.026 A 
BRANCH  18  21
ATOM     21  S   UNL A   1     -17.538 201.152 119.684  0.00  0.00    +0.056 S 
ATOM     22  O   UNL A   1     -17.305 201.015 121.104  0.00  0.00    -0.153 OA
ATOM     23  O   UNL A   1     -18.798 201.603 119.143  0.00  0.00    -0.153 OA
BRANCH  21  24
ATOM     24  N   UNL A   1     -17.260 199.636 119.020  0.00  0.00    -0.203 NA
ATOM     25  H   UNL A   1     -17.039 198.965 119.754  0.00  0.00    +0.144 HD
ATOM     26  H   UNL A   1     -18.040 199.368 118.420  0.00  0.00    +0.144 HD
ENDBRANCH  21  24
ENDBRANCH  18  21
ENDBRANCH  13  15
ENDBRANCH   4  13
BRANCH  10  27
ATOM     27  C   UNL A   1     -12.690 206.246 110.672  0.00  0.00    +0.339 C 
ATOM     28  O   UNL A   1     -12.339 206.941 109.731  0.00  0.00    -0.245 OA
BRANCH  27  29
ATOM     29  O   UNL A   1     -13.861 205.569 110.777  0.00  0.00    -0.461 OA
BRANCH  29  30
ATOM     30  C   UNL A   1     -15.055 206.368 110.687  0.00  0.00    +0.235 C 
BRANCH  30  31
ATOM     31  C   UNL A   1     -15.957 206.232 111.920  0.00  0.00    +0.021 C 
ATOM     32  C   UNL A   1     -17.378 206.726 111.646  0.00  0.00    +0.010 C 
ATOM     33  C   UNL A   1     -15.990 204.766 112.362  0.00  0.00    +0.010 C 
ENDBRANCH  30  31
ENDBRANCH  29  30
ENDBRANCH  27  29
ENDBRANCH  10  27
TORSDOF 8
ENDMDL
MODEL 2
REMARK minimizedAffinity -8.9320755
REMARK minimizedRMSD -1
REMARK  Name = *****
REMARK  10 active torsions:
REMARK  status: ('A' for Active; 'I' for Inactive)
REMARK    1  A    between atoms: N_4  and  N_5
REMARK    2  A    between atoms: N_5  and  C_6
REMARK    3  A    between atoms: C_9  and  S_10
REMARK    4  A    between atoms: S_10  and  N_13
REMARK    5  A    between atoms: C_21  and  C_23
REMARK    6  A    between atoms: C_23  and  O_25
REMARK    7  A    between atoms: O_25  and  C_26
REMARK    8  A    between atoms: C_26  and  C_27
REMARK    9  A    between atoms: C_27  and  C_28
REMARK   10  A    between atoms: C_27  and  C_29
REMARK                            x       y       z     vdW  Elec       q    Type
REMARK                         _______ _______ _______ _____ _____    ______ ____
ROOT
ATOM      1  O   UNL A   1     -11.000 204.623 118.543  0.00  0.00    -0.268 OA
ATOM      2  C   UNL A   1     -10.980 204.901 117.361  0.00  0.00    +0.269 C 
ATOM      3  C   UNL A   1     -12.104 204.613 116.357  0.00  0.00    +0.152 C 
ATOM      4  N   UNL A   1     -13.244 204.041 116.569  0.00  0.00    -0.177 NA
ATOM      5  C   UNL A   1     -11.645 205.142 115.077  0.00  0.00    +0.029 A 
ATOM      6  C   UNL A   1     -10.388 205.699 115.310  0.00  0.00    +0.043 A 
ATOM      7  N   UNL A   1     -10.002 205.546 116.641  0.00  0.00    -0.280 N 
ATOM      8  C   UNL A   1      -9.686 206.329 114.309  0.00  0.00    +0.025 A 
ATOM      9  C   UNL A   1     -10.290 206.390 113.047  0.00  0.00    +0.017 A 
ATOM     10  C   UNL A   1     -11.570 205.824 112.801  0.00  0.00    +0.060 A 
ATOM     11  C   UNL A   1     -12.262 205.180 113.838  0.00  0.00    +0.027 A 
ATOM     12  H   UNL A   1      -9.140 205.876 117.052  0.00  0.00    +0.155 HD
ENDROOT
BRANCH   4  13
ATOM     13  N   UNL A   1     -13.479 203.641 117.845  0.00  0.00    -0.237 N 
ATOM     14  H   UNL A   1     -12.811 203.833 118.598  0.00  0.00    +0.174 HD
BRANCH  13  15
ATOM     15  C   UNL A   1     -14.775 203.258 118.231  0.00  0.00    +0.048 A 
ATOM     16  C   UNL A   1     -15.192 203.300 119.569  0.00  0.00    +0.026 A 
ATOM     17  C   UNL A   1     -16.498 202.965 119.923  0.00  0.00    +0.030 A 
ATOM     18  C   UNL A   1     -17.406 202.591 118.930  0.00  0.00    +0.105 A 
ATOM     19  C   UNL A   1     -17.007 202.523 117.594  0.00  0.00    +0.030 A 
ATOM     20  C   UNL A   1     -15.697 202.866 117.250  0.00  0.00    +0.026 A 
BRANCH  18  21
ATOM     21  S   UNL A   1     -19.072 202.207 119.372  0.00  0.00    +0.056 S 
ATOM     22  O   UNL A   1     -19.863 202.062 118.171  0.00  0.00    -0.153 OA
ATOM     23  O   UNL A   1     -19.074 201.224 120.428  0.00  0.00    -0.153 OA
BRANCH  21  24
ATOM     24  N   UNL A   1     -19.559 203.650 120.077  0.00  0.00    -0.203 NA
ATOM     25  H   UNL A   1     -20.316 204.068 119.537  0.00  0.00    +0.144 HD
ATOM     26  H   UNL A   1     -19.771 203.505 121.063  0.00  0.00    +0.144 HD
ENDBRANCH  21  24
ENDBRANCH  18  21
ENDBRANCH  13  15
ENDBRANCH   4  13
BRANCH  10  27
ATOM     27  C   UNL A   1     -12.157 206.015 111.443  0.00  0.00    +0.339 C 
ATOM     28  O   UNL A   1     -11.757 206.865 110.663  0.00  0.00    -0.245 OA
BRANCH  27  29
ATOM     29  O   UNL A   1     -13.231 205.205 111.267  0.00  0.00    -0.461 OA
BRANCH  29  30
ATOM     30  C   UNL A   1     -14.447 205.859 110.861  0.00  0.00    +0.235 C 
BRANCH  30  31
ATOM     31  C   UNL A   1     -15.484 205.942 111.989  0.00  0.00    +0.021 C 
ATOM     32  C   UNL A   1     -16.781 206.605 111.526  0.00  0.00    +0.010 C 
ATOM     33  C   UNL A   1     -15.776 204.532 112.510  0.00  0.00    +0.010 C 
ENDBRANCH  30  31
ENDBRANCH  29  30
ENDBRANCH  27  29
ENDBRANCH  10  27
TORSDOF 8
ENDMDL
MODEL 3
REMARK minimizedAffinity -8.26665401
REMARK minimizedRMSD -1
REMARK  Name = *****
REMARK  10 active torsions:
REMARK  status: ('A' for Active; 'I' for Inactive)
REMARK    1  A    between atoms: N_4  and  N_5
REMARK    2  A    between atoms: N_5  and  C_6
REMARK    3  A    between atoms: C_9  and  S_10
REMARK    4  A    between atoms: S_10  and  N_13
REMARK    5  A    between atoms: C_21  and  C_23
REMARK    6  A    between atoms: C_23  and  O_25
REMARK    7  A    between atoms: O_25  and  C_26
REMARK    8  A    between atoms: C_26  and  C_27
REMARK    9  A    between atoms: C_27  and  C_28
REMARK   10  A    between atoms: C_27  and  C_29
REMARK                            x       y       z     vdW  Elec       q    Type
REMARK                         _______ _______ _______ _____ _____    ______ ____
ROOT
ATOM      1  O   UNL A   1     -14.112 206.622 119.867  0.00  0.00    -0.268 OA
ATOM      2  C   UNL A   1     -13.819 206.584 118.689  0.00  0.00    +0.269 C 
ATOM      3  C   UNL A   1     -13.564 205.309 117.873  0.00  0.00    +0.152 C 
ATOM      4  N   UNL A   1     -13.611 204.079 118.269  0.00  0.00    -0.177 NA
ATOM      5  C   UNL A   1     -13.271 205.753 116.514  0.00  0.00    +0.029 A 
ATOM      6  C   UNL A   1     -13.361 207.145 116.528  0.00  0.00    +0.043 A 
ATOM      7  N   UNL A   1     -13.670 207.623 117.800  0.00  0.00    -0.280 N 
ATOM      8  C   UNL A   1     -13.182 207.886 115.384  0.00  0.00    +0.025 A 
ATOM      9  C   UNL A   1     -12.907 207.183 114.203  0.00  0.00    +0.017 A 
ATOM     10  C   UNL A   1     -12.812 205.765 114.182  0.00  0.00    +0.060 A 
ATOM     11  C   UNL A   1     -12.992 205.033 115.365  0.00  0.00    +0.027 A 
ATOM     12  H   UNL A   1     -13.799 208.591 118.056  0.00  0.00    +0.155 HD
ENDROOT
BRANCH   4  13
ATOM     13  N   UNL A   1     -13.925 203.887 119.576  0.00  0.00    -0.237 N 
ATOM     14  H   UNL A   1     -13.302 204.201 120.327  0.00  0.00    +0.174 HD
BRANCH  13  15
ATOM     15  C   UNL A   1     -15.243 203.565 119.938  0.00  0.00    +0.048 A 
ATOM     16  C   UNL A   1     -15.774 203.911 121.189  0.00  0.00    +0.026 A 
ATOM     17  C   UNL A   1     -17.101 203.629 121.508  0.00  0.00    +0.030 A 
ATOM     18  C   UNL A   1     -17.916 202.997 120.565  0.00  0.00    +0.105 A 
ATOM     19  C   UNL A   1     -17.404 202.625 119.322  0.00  0.00    +0.030 A 
ATOM     20  C   UNL A   1     -16.074 202.919 119.010  0.00  0.00    +0.026 A 
BRANCH  18  21
ATOM     21  S   UNL A   1     -19.608 202.675 120.954  0.00  0.00    +0.056 S 
ATOM     22  O   UNL A   1     -20.118 201.663 120.057  0.00  0.00    -0.153 OA
ATOM     23  O   UNL A   1     -19.765 202.597 122.386  0.00  0.00    -0.153 OA
BRANCH  21  24
ATOM     24  N   UNL A   1     -20.327 204.117 120.483  0.00  0.00    -0.203 NA
ATOM     25  H   UNL A   1     -20.980 203.951 119.718  0.00  0.00    +0.144 HD
ATOM     26  H   UNL A   1     -20.730 204.588 121.292  0.00  0.00    +0.144 HD
ENDBRANCH  21  24
ENDBRANCH  18  21
ENDBRANCH  13  15
ENDBRANCH   4  13
BRANCH  10  27
ATOM     27  C   UNL A   1     -12.597 205.110 112.859  0.00  0.00    +0.339 C 
ATOM     28  O   UNL A   1     -11.593 205.291 112.187  0.00  0.00    -0.245 OA
BRANCH  27  29
ATOM     29  O   UNL A   1     -13.695 204.404 112.489  0.00  0.00    -0.461 OA
BRANCH  29  30
ATOM     30  C   UNL A   1     -14.367 204.869 111.305  0.00  0.00    +0.235 C 
BRANCH  30  31
ATOM     31  C   UNL A   1     -15.744 205.476 111.601  0.00  0.00    +0.021 C 
ATOM     32  C   UNL A   1     -16.302 204.999 112.943  0.00  0.00    +0.010 C 
ATOM     33  C   UNL A   1     -15.634 207.004 111.596  0.00  0.00    +0.010 C 
ENDBRANCH  30  31
ENDBRANCH  29  30
ENDBRANCH  27  29
ENDBRANCH  10  27
TORSDOF 8
ENDMDL
MODEL 4
REMARK minimizedAffinity -8.25258636
REMARK minimizedRMSD -1
REMARK  Name = *****
REMARK  10 active torsions:
REMARK  status: ('A' for Active; 'I' for Inactive)
REMARK    1  A    between atoms: N_4  and  N_5
REMARK    2  A    between atoms: N_5  and  C_6
REMARK    3  A    between atoms: C_9  and  S_10
REMARK    4  A    between atoms: S_10  and  N_13
REMARK    5  A    between atoms: C_21  and  C_23
REMARK    6  A    between atoms: C_23  and  O_25
REMARK    7  A    between atoms: O_25  and  C_26
REMARK    8  A    between atoms: C_26  and  C_27
REMARK    9  A    between atoms: C_27  and  C_28
REMARK   10  A    between atoms: C_27  and  C_29
REMARK                            x       y       z     vdW  Elec       q    Type
REMARK                         _______ _______ _______ _____ _____    ______ ____
ROOT
ATOM      1  O   UNL A   1     -15.312 201.148 118.544  0.00  0.00    -0.268 OA
ATOM      2  C   UNL A   1     -14.997 202.109 117.872  0.00  0.00    +0.269 C 
ATOM      3  C   UNL A   1     -15.972 203.106 117.229  0.00  0.00    +0.152 C 
ATOM      4  N   UNL A   1     -17.264 203.112 117.276  0.00  0.00    -0.177 NA
ATOM      5  C   UNL A   1     -15.143 204.095 116.547  0.00  0.00    +0.029 A 
ATOM      6  C   UNL A   1     -13.818 203.726 116.782  0.00  0.00    +0.043 A 
ATOM      7  N   UNL A   1     -13.741 202.562 117.545  0.00  0.00    -0.280 N 
ATOM      8  C   UNL A   1     -12.770 204.479 116.309  0.00  0.00    +0.025 A 
ATOM      9  C   UNL A   1     -13.089 205.635 115.585  0.00  0.00    +0.017 A 
ATOM     10  C   UNL A   1     -14.436 206.017 115.341  0.00  0.00    +0.060 A 
ATOM     11  C   UNL A   1     -15.488 205.226 115.828  0.00  0.00    +0.027 A 
ATOM     12  H   UNL A   1     -12.893 202.108 117.853  0.00  0.00    +0.155 HD
ENDROOT
BRANCH   4  13
ATOM     13  N   UNL A   1     -17.836 202.106 117.987  0.00  0.00    -0.237 N 
ATOM     14  H   UNL A   1     -17.616 201.124 117.795  0.00  0.00    +0.174 HD
BRANCH  13  15
ATOM     15  C   UNL A   1     -18.475 202.386 119.206  0.00  0.00    +0.048 A 
ATOM     16  C   UNL A   1     -17.780 202.916 120.303  0.00  0.00    +0.026 A 
ATOM     17  C   UNL A   1     -18.443 203.235 121.486  0.00  0.00    +0.030 A 
ATOM     18  C   UNL A   1     -19.822 203.032 121.578  0.00  0.00    +0.105 A 
ATOM     19  C   UNL A   1     -20.531 202.488 120.507  0.00  0.00    +0.030 A 
ATOM     20  C   UNL A   1     -19.857 202.177 119.323  0.00  0.00    +0.026 A 
BRANCH  18  21
ATOM     21  S   UNL A   1     -20.670 203.475 123.062  0.00  0.00    +0.056 S 
ATOM     22  O   UNL A   1     -20.608 204.908 123.238  0.00  0.00    -0.153 OA
ATOM     23  O   UNL A   1     -21.905 202.734 123.149  0.00  0.00    -0.153 OA
BRANCH  21  24
ATOM     24  N   UNL A   1     -19.650 202.821 124.223  0.00  0.00    -0.203 NA
ATOM     25  H   UNL A   1     -19.260 203.560 124.807  0.00  0.00    +0.144 HD
ATOM     26  H   UNL A   1     -20.131 202.084 124.738  0.00  0.00    +0.144 HD
ENDBRANCH  21  24
ENDBRANCH  18  21
ENDBRANCH  13  15
ENDBRANCH   4  13
BRANCH  10  27
ATOM     27  C   UNL A   1     -14.667 207.308 114.630  0.00  0.00    +0.339 C 
ATOM     28  O   UNL A   1     -14.284 208.382 115.067  0.00  0.00    -0.245 OA
BRANCH  27  29
ATOM     29  O   UNL A   1     -15.434 207.118 113.527  0.00  0.00    -0.461 OA
BRANCH  29  30
ATOM     30  C   UNL A   1     -14.764 206.540 112.392  0.00  0.00    +0.235 C 
BRANCH  30  31
ATOM     31  C   UNL A   1     -15.498 205.318 111.825  0.00  0.00    +0.021 C 
ATOM     32  C   UNL A   1     -14.773 204.012 112.155  0.00  0.00    +0.010 C 
ATOM     33  C   UNL A   1     -16.922 205.280 112.387  0.00  0.00    +0.010 C 
ENDBRANCH  30  31
ENDBRANCH  29  30
ENDBRANCH  27  29
ENDBRANCH  10  27
TORSDOF 8
ENDMDL
MODEL 5
REMARK minimizedAffinity -8.22876263
REMARK minimizedRMSD -1
REMARK  Name = *****
REMARK  10 active torsions:
REMARK  status: ('A' for Active; 'I' for Inactive)
REMARK    1  A    between atoms: N_4  and  N_5
REMARK    2  A    between atoms: N_5  and  C_6
REMARK    3  A    between atoms: C_9  and  S_10
REMARK    4  A    between atoms: S_10  and  N_13
REMARK    5  A    between atoms: C_21  and  C_23
REMARK    6  A    between atoms: C_23  and  O_25
REMARK    7  A    between atoms: O_25  and  C_26
REMARK    8  A    between atoms: C_26  and  C_27
REMARK    9  A    between atoms: C_27  and  C_28
REMARK   10  A    between atoms: C_27  and  C_29
REMARK                            x       y       z     vdW  Elec       q    Type
REMARK                         _______ _______ _______ _____ _____    ______ ____
ROOT
ATOM      1  O   UNL A   1     -15.169 203.203 113.108  0.00  0.00    -0.268 OA
ATOM      2  C   UNL A   1     -14.279 204.026 113.043  0.00  0.00    +0.269 C 
ATOM      3  C   UNL A   1     -13.654 204.760 114.238  0.00  0.00    +0.152 C 
ATOM      4  N   UNL A   1     -13.944 204.646 115.493  0.00  0.00    -0.177 NA
ATOM      5  C   UNL A   1     -12.618 205.625 113.682  0.00  0.00    +0.029 A 
ATOM      6  C   UNL A   1     -12.624 205.407 112.304  0.00  0.00    +0.043 A 
ATOM      7  N   UNL A   1     -13.601 204.484 111.938  0.00  0.00    -0.280 N 
ATOM      8  C   UNL A   1     -11.729 206.043 111.475  0.00  0.00    +0.025 A 
ATOM      9  C   UNL A   1     -10.810 206.914 112.074  0.00  0.00    +0.017 A 
ATOM     10  C   UNL A   1     -10.799 207.140 113.477  0.00  0.00    +0.060 A 
ATOM     11  C   UNL A   1     -11.728 206.486 114.300  0.00  0.00    +0.027 A 
ATOM     12  H   UNL A   1     -13.788 204.157 111.000  0.00  0.00    +0.155 HD
ENDROOT
BRANCH   4  13
ATOM     13  N   UNL A   1     -14.931 203.764 115.796  0.00  0.00    -0.237 N 
ATOM     14  H   UNL A   1     -15.269 203.083 115.108  0.00  0.00    +0.174 HD
BRANCH  13  15
ATOM     15  C   UNL A   1     -15.276 203.534 117.138  0.00  0.00    +0.048 A 
ATOM     16  C   UNL A   1     -16.424 202.814 117.496  0.00  0.00    +0.026 A 
ATOM     17  C   UNL A   1     -16.720 202.552 118.832  0.00  0.00    +0.030 A 
ATOM     18  C   UNL A   1     -15.855 203.008 119.830  0.00  0.00    +0.105 A 
ATOM     19  C   UNL A   1     -14.717 203.744 119.499  0.00  0.00    +0.030 A 
ATOM     20  C   UNL A   1     -14.427 203.995 118.155  0.00  0.00    +0.026 A 
BRANCH  18  21
ATOM     21  S   UNL A   1     -16.207 202.642 121.521  0.00  0.00    +0.056 S 
ATOM     22  O   UNL A   1     -16.937 201.397 121.598  0.00  0.00    -0.153 OA
ATOM     23  O   UNL A   1     -15.038 202.909 122.324  0.00  0.00    -0.153 OA
BRANCH  21  24
ATOM     24  N   UNL A   1     -17.312 203.851 121.889  0.00  0.00    -0.203 NA
ATOM     25  H   UNL A   1     -18.216 203.443 122.122  0.00  0.00    +0.144 HD
ATOM     26  H   UNL A   1     -16.930 204.471 122.602  0.00  0.00    +0.144 HD
ENDBRANCH  21  24
ENDBRANCH  18  21
ENDBRANCH  13  15
ENDBRANCH   4  13
BRANCH  10  27
ATOM     27  C   UNL A   1      -9.728 208.024 114.022  0.00  0.00    +0.339 C 
ATOM     28  O   UNL A   1      -9.598 208.248 115.216  0.00  0.00    -0.245 OA
BRANCH  27  29
ATOM     29  O   UNL A   1      -9.023 208.601 113.016  0.00  0.00    -0.461 OA
BRANCH  29  30
ATOM     30  C   UNL A   1      -7.590 208.506 113.123  0.00  0.00    +0.235 C 
BRANCH  30  31
ATOM     31  C   UNL A   1      -7.078 207.065 113.003  0.00  0.00    +0.021 C 
ATOM     32  C   UNL A   1      -6.355 206.824 111.677  0.00  0.00    +0.010 C 
ATOM     33  C   UNL A   1      -6.137 206.765 114.173  0.00  0.00    +0.010 C 
ENDBRANCH  30  31
ENDBRANCH  29  30
ENDBRANCH  27  29
ENDBRANCH  10  27
TORSDOF 8
ENDMDL
MODEL 6
REMARK minimizedAffinity -8.01228333
REMARK minimizedRMSD -1
REMARK  Name = *****
REMARK  10 active torsions:
REMARK  status: ('A' for Active; 'I' for Inactive)
REMARK    1  A    between atoms: N_4  and  N_5
REMARK    2  A    between atoms: N_5  and  C_6
REMARK    3  A    between atoms: C_9  and  S_10
REMARK    4  A    between atoms: S_10  and  N_13
REMARK    5  A    between atoms: C_21  and  C_23
REMARK    6  A    between atoms: C_23  and  O_25
REMARK    7  A    between atoms: O_25  and  C_26
REMARK    8  A    between atoms: C_26  and  C_27
REMARK    9  A    between atoms: C_27  and  C_28
REMARK   10  A    between atoms: C_27  and  C_29
REMARK                            x       y       z     vdW  Elec       q    Type
REMARK                         _______ _______ _______ _____ _____    ______ ____
ROOT
ATOM      1  O   UNL A   1      -8.611 208.627 115.669  0.00  0.00    -0.268 OA
ATOM      2  C   UNL A   1      -9.251 208.114 114.773  0.00  0.00    +0.269 C 
ATOM      3  C   UNL A   1     -10.731 207.713 114.850  0.00  0.00    +0.152 C 
ATOM      4  N   UNL A   1     -11.547 207.840 115.845  0.00  0.00    -0.177 NA
ATOM      5  C   UNL A   1     -11.067 207.164 113.541  0.00  0.00    +0.029 A 
ATOM      6  C   UNL A   1      -9.908 207.250 112.769  0.00  0.00    +0.043 A 
ATOM      7  N   UNL A   1      -8.851 207.794 113.497  0.00  0.00    -0.280 N 
ATOM      8  C   UNL A   1      -9.892 206.852 111.454  0.00  0.00    +0.025 A 
ATOM      9  C   UNL A   1     -11.090 206.360 110.920  0.00  0.00    +0.017 A 
ATOM     10  C   UNL A   1     -12.274 206.268 111.700  0.00  0.00    +0.060 A 
ATOM     11  C   UNL A   1     -12.262 206.674 113.043  0.00  0.00    +0.027 A 
ATOM     12  H   UNL A   1      -7.917 207.966 113.152  0.00  0.00    +0.155 HD
ENDROOT
BRANCH   4  13
ATOM     13  N   UNL A   1     -11.030 208.399 116.969  0.00  0.00    -0.237 N 
ATOM     14  H   UNL A   1     -10.848 209.405 117.031  0.00  0.00    +0.174 HD
BRANCH  13  15
ATOM     15  C   UNL A   1     -11.048 207.683 118.178  0.00  0.00    +0.048 A 
ATOM     16  C   UNL A   1     -12.180 206.974 118.604  0.00  0.00    +0.026 A 
ATOM     17  C   UNL A   1     -12.159 206.227 119.780  0.00  0.00    +0.030 A 
ATOM     18  C   UNL A   1     -10.989 206.178 120.543  0.00  0.00    +0.105 A 
ATOM     19  C   UNL A   1      -9.856 206.892 120.150  0.00  0.00    +0.030 A 
ATOM     20  C   UNL A   1      -9.887 207.632 118.965  0.00  0.00    +0.026 A 
BRANCH  18  21
ATOM     21  S   UNL A   1     -10.948 205.200 122.012  0.00  0.00    +0.056 S 
ATOM     22  O   UNL A   1      -9.621 205.251 122.582  0.00  0.00    -0.153 OA
ATOM     23  O   UNL A   1     -12.138 205.450 122.789  0.00  0.00    -0.153 OA
BRANCH  21  24
ATOM     24  N   UNL A   1     -11.121 203.656 121.376  0.00  0.00    -0.203 NA
ATOM     25  H   UNL A   1     -10.288 203.101 121.569  0.00  0.00    +0.144 HD
ATOM     26  H   UNL A   1     -11.994 203.240 121.699  0.00  0.00    +0.144 HD
ENDBRANCH  21  24
ENDBRANCH  18  21
ENDBRANCH  13  15
ENDBRANCH   4  13
BRANCH  10  27
ATOM     27  C   UNL A   1     -13.515 205.807 111.013  0.00  0.00    +0.339 C 
ATOM     28  O   UNL A   1     -13.919 206.302 109.972  0.00  0.00    -0.245 OA
BRANCH  27  29
ATOM     29  O   UNL A   1     -14.155 204.868 111.757  0.00  0.00    -0.461 OA
BRANCH  29  30
ATOM     30  C   UNL A   1     -15.587 204.992 111.822  0.00  0.00    +0.235 C 
BRANCH  30  31
ATOM     31  C   UNL A   1     -16.045 206.380 112.289  0.00  0.00    +0.021 C 
ATOM     32  C   UNL A   1     -17.436 206.731 111.761  0.00  0.00    +0.010 C 
ATOM     33  C   UNL A   1     -16.041 206.423 113.820  0.00  0.00    +0.010 C 
ENDBRANCH  30  31
ENDBRANCH  29  30
ENDBRANCH  27  29
ENDBRANCH  10  27
TORSDOF 8
ENDMDL
MODEL 7
REMARK minimizedAffinity -7.95090294
REMARK minimizedRMSD -1
REMARK  Name = *****
REMARK  10 active torsions:
REMARK  status: ('A' for Active; 'I' for Inactive)
REMARK    1  A    between atoms: N_4  and  N_5
REMARK    2  A    between atoms: N_5  and  C_6
REMARK    3  A    between atoms: C_9  and  S_10
REMARK    4  A    between atoms: S_10  and  N_13
REMARK    5  A    between atoms: C_21  and  C_23
REMARK    6  A    between atoms: C_23  and  O_25
REMARK    7  A    between atoms: O_25  and  C_26
REMARK    8  A    between atoms: C_26  and  C_27
REMARK    9  A    between atoms: C_27  and  C_28
REMARK   10  A    between atoms: C_27  and  C_29
REMARK                            x       y       z     vdW  Elec       q    Type
REMARK                         _______ _______ _______ _____ _____    ______ ____
ROOT
ATOM      1  O   UNL A   1     -13.356 204.443 119.054  0.00  0.00    -0.268 OA
ATOM      2  C   UNL A   1     -13.366 204.735 117.874  0.00  0.00    +0.269 C 
ATOM      3  C   UNL A   1     -14.063 203.937 116.764  0.00  0.00    +0.152 C 
ATOM      4  N   UNL A   1     -14.746 202.845 116.867  0.00  0.00    -0.177 NA
ATOM      5  C   UNL A   1     -13.826 204.677 115.528  0.00  0.00    +0.029 A 
ATOM      6  C   UNL A   1     -13.080 205.802 115.881  0.00  0.00    +0.043 A 
ATOM      7  N   UNL A   1     -12.807 205.824 117.248  0.00  0.00    -0.280 N 
ATOM      8  C   UNL A   1     -12.718 206.743 114.947  0.00  0.00    +0.025 A 
ATOM      9  C   UNL A   1     -13.132 206.526 113.626  0.00  0.00    +0.017 A 
ATOM     10  C   UNL A   1     -13.891 205.382 113.260  0.00  0.00    +0.060 A 
ATOM     11  C   UNL A   1     -14.241 204.432 114.231  0.00  0.00    +0.027 A 
ATOM     12  H   UNL A   1     -12.294 206.542 117.740  0.00  0.00    +0.155 HD
ENDROOT
BRANCH   4  13
ATOM     13  N   UNL A   1     -14.863 202.333 118.119  0.00  0.00    -0.237 N 
ATOM     14  H   UNL A   1     -14.039 202.152 118.701  0.00  0.00    +0.174 HD
BRANCH  13  15
ATOM     15  C   UNL A   1     -16.107 202.355 118.771  0.00  0.00    +0.048 A 
ATOM     16  C   UNL A   1     -17.270 201.858 118.165  0.00  0.00    +0.026 A 
ATOM     17  C   UNL A   1     -18.484 201.841 118.848  0.00  0.00    +0.030 A 
ATOM     18  C   UNL A   1     -18.542 202.319 120.160  0.00  0.00    +0.105 A 
ATOM     19  C   UNL A   1     -17.402 202.838 120.776  0.00  0.00    +0.030 A 
ATOM     20  C   UNL A   1     -16.189 202.843 120.083  0.00  0.00    +0.026 A 
BRANCH  18  21
ATOM     21  S   UNL A   1     -20.070 202.261 121.041  0.00  0.00    +0.056 S 
ATOM     22  O   UNL A   1     -20.868 203.414 120.690  0.00  0.00    -0.153 OA
ATOM     23  O   UNL A   1     -20.592 200.916 121.011  0.00  0.00    -0.153 OA
BRANCH  21  24
ATOM     24  N   UNL A   1     -19.545 202.523 122.614  0.00  0.00    -0.203 NA
ATOM     25  H   UNL A   1     -19.934 203.393 122.975  0.00  0.00    +0.144 HD
ATOM     26  H   UNL A   1     -19.736 201.702 123.188  0.00  0.00    +0.144 HD
ENDBRANCH  21  24
ENDBRANCH  18  21
ENDBRANCH  13  15
ENDBRANCH   4  13
BRANCH  10  27
ATOM     27  C   UNL A   1     -14.351 205.287 111.844  0.00  0.00    +0.339 C 
ATOM     28  O   UNL A   1     -14.211 204.279 111.168  0.00  0.00    -0.245 OA
BRANCH  27  29
ATOM     29  O   UNL A   1     -14.826 206.483 111.412  0.00  0.00    -0.461 OA
BRANCH  29  30
ATOM     30  C   UNL A   1     -15.976 206.989 112.115  0.00  0.00    +0.235 C 
BRANCH  30  31
ATOM     31  C   UNL A   1     -17.249 206.181 111.834  0.00  0.00    +0.021 C 
ATOM     32  C   UNL A   1     -17.701 205.382 113.057  0.00  0.00    +0.010 C 
ATOM     33  C   UNL A   1     -18.364 207.133 111.391  0.00  0.00    +0.010 C 
ENDBRANCH  30  31
ENDBRANCH  29  30
ENDBRANCH  27  29
ENDBRANCH  10  27
TORSDOF 8
ENDMDL
MODEL 8
REMARK minimizedAffinity -7.94939041
REMARK minimizedRMSD -1
REMARK  Name = *****
REMARK  10 active torsions:
REMARK  status: ('A' for Active; 'I' for Inactive)
REMARK    1  A    between atoms: N_4  and  N_5
REMARK    2  A    between atoms: N_5  and  C_6
REMARK    3  A    between atoms: C_9  and  S_10
REMARK    4  A    between atoms: S_10  and  N_13
REMARK    5  A    between atoms: C_21  and  C_23
REMARK    6  A    between atoms: C_23  and  O_25
REMARK    7  A    between atoms: O_25  and  C_26
REMARK    8  A    between atoms: C_26  and  C_27
REMARK    9  A    between atoms: C_27  and  C_28
REMARK   10  A    between atoms: C_27  and  C_29
REMARK                            x       y       z     vdW  Elec       q    Type
REMARK                         _______ _______ _______ _____ _____    ______ ____
ROOT
ATOM      1  O   UNL A   1     -11.273 207.704 119.185  0.00  0.00    -0.268 OA
ATOM      2  C   UNL A   1     -11.149 207.523 117.991  0.00  0.00    +0.269 C 
ATOM      3  C   UNL A   1     -11.975 206.543 117.146  0.00  0.00    +0.152 C 
ATOM      4  N   UNL A   1     -12.923 205.752 117.530  0.00  0.00    -0.177 NA
ATOM      5  C   UNL A   1     -11.493 206.688 115.776  0.00  0.00    +0.029 A 
ATOM      6  C   UNL A   1     -10.498 207.666 115.812  0.00  0.00    +0.043 A 
ATOM      7  N   UNL A   1     -10.296 208.140 117.106  0.00  0.00    -0.280 N 
ATOM      8  C   UNL A   1      -9.858 208.078 114.667  0.00  0.00    +0.025 A 
ATOM      9  C   UNL A   1     -10.250 207.477 113.463  0.00  0.00    +0.017 A 
ATOM     10  C   UNL A   1     -11.261 206.480 113.420  0.00  0.00    +0.060 A 
ATOM     11  C   UNL A   1     -11.894 206.071 114.604  0.00  0.00    +0.027 A 
ATOM     12  H   UNL A   1      -9.639 208.857 117.381  0.00  0.00    +0.155 HD
ENDROOT
BRANCH   4  13
ATOM     13  N   UNL A   1     -13.230 205.791 118.852  0.00  0.00    -0.237 N 
ATOM     14  H   UNL A   1     -12.962 206.586 119.440  0.00  0.00    +0.174 HD
BRANCH  13  15
ATOM     15  C   UNL A   1     -14.201 204.918 119.371  0.00  0.00    +0.048 A 
ATOM     16  C   UNL A   1     -14.717 203.853 118.619  0.00  0.00    +0.026 A 
ATOM     17  C   UNL A   1     -15.641 202.967 119.171  0.00  0.00    +0.030 A 
ATOM     18  C   UNL A   1     -16.052 203.139 120.495  0.00  0.00    +0.105 A 
ATOM     19  C   UNL A   1     -15.567 204.203 121.256  0.00  0.00    +0.030 A 
ATOM     20  C   UNL A   1     -14.636 205.081 120.694  0.00  0.00    +0.026 A 
BRANCH  18  21
ATOM     21  S   UNL A   1     -17.191 201.994 121.208  0.00  0.00    +0.056 S 
ATOM     22  O   UNL A   1     -18.409 202.689 121.559  0.00  0.00    -0.153 OA
ATOM     23  O   UNL A   1     -17.187 200.771 120.442  0.00  0.00    -0.153 OA
BRANCH  21  24
ATOM     24  N   UNL A   1     -16.426 201.639 122.659  0.00  0.00    -0.203 NA
ATOM     25  H   UNL A   1     -16.998 201.945 123.444  0.00  0.00    +0.144 HD
ATOM     26  H   UNL A   1     -16.162 200.654 122.684  0.00  0.00    +0.144 HD
ENDBRANCH  21  24
ENDBRANCH  18  21
ENDBRANCH  13  15
ENDBRANCH   4  13
BRANCH  10  27
ATOM     27  C   UNL A   1     -11.660 205.963 112.079  0.00  0.00    +0.339 C 
ATOM     28  O   UNL A   1     -11.243 206.440 111.035  0.00  0.00    -0.245 OA
BRANCH  27  29
ATOM     29  O   UNL A   1     -12.604 204.995 112.198  0.00  0.00    -0.461 OA
BRANCH  29  30
ATOM     30  C   UNL A   1     -13.786 205.174 111.397  0.00  0.00    +0.235 C 
BRANCH  30  31
ATOM     31  C   UNL A   1     -15.016 204.471 111.986  0.00  0.00    +0.021 C 
ATOM     32  C   UNL A   1     -14.762 203.969 113.408  0.00  0.00    +0.010 C 
ATOM     33  C   UNL A   1     -16.202 205.440 111.979  0.00  0.00    +0.010 C 
ENDBRANCH  30  31
ENDBRANCH  29  30
ENDBRANCH  27  29
ENDBRANCH  10  27
TORSDOF 8
ENDMDL
MODEL 9
REMARK minimizedAffinity -7.87038755
REMARK minimizedRMSD -1
REMARK  Name = *****
REMARK  10 active torsions:
REMARK  status: ('A' for Active; 'I' for Inactive)
REMARK    1  A    between atoms: N_4  and  N_5
REMARK    2  A    between atoms: N_5  and  C_6
REMARK    3  A    between atoms: C_9  and  S_10
REMARK    4  A    between atoms: S_10  and  N_13
REMARK    5  A    between atoms: C_21  and  C_23
REMARK    6  A    between atoms: C_23  and  O_25
REMARK    7  A    between atoms: O_25  and  C_26
REMARK    8  A    between atoms: C_26  and  C_27
REMARK    9  A    between atoms: C_27  and  C_28
REMARK   10  A    between atoms: C_27  and  C_29
REMARK                            x       y       z     vdW  Elec       q    Type
REMARK                         _______ _______ _______ _____ _____    ______ ____
ROOT
ATOM      1  O   UNL A   1      -8.365 209.093 113.993  0.00  0.00    -0.268 OA
ATOM      2  C   UNL A   1      -9.198 208.361 113.496  0.00  0.00    +0.269 C 
ATOM      3  C   UNL A   1     -10.172 207.463 114.271  0.00  0.00    +0.152 C 
ATOM      4  N   UNL A   1     -10.289 207.320 115.551  0.00  0.00    -0.177 NA
ATOM      5  C   UNL A   1     -10.988 206.792 113.264  0.00  0.00    +0.029 A 
ATOM      6  C   UNL A   1     -10.548 207.262 112.026  0.00  0.00    +0.043 A 
ATOM      7  N   UNL A   1      -9.498 208.167 112.168  0.00  0.00    -0.280 N 
ATOM      8  C   UNL A   1     -11.143 206.858 110.854  0.00  0.00    +0.025 A 
ATOM      9  C   UNL A   1     -12.211 205.957 110.957  0.00  0.00    +0.017 A 
ATOM     10  C   UNL A   1     -12.663 205.474 112.214  0.00  0.00    +0.060 A 
ATOM     11  C   UNL A   1     -12.034 205.896 113.395  0.00  0.00    +0.027 A 
ATOM     12  H   UNL A   1      -9.023 208.650 111.418  0.00  0.00    +0.155 HD
ENDROOT
BRANCH   4  13
ATOM     13  N   UNL A   1      -9.439 208.058 116.310  0.00  0.00    -0.237 N 
ATOM     14  H   UNL A   1      -9.159 209.004 116.034  0.00  0.00    +0.174 HD
BRANCH  13  15
ATOM     15  C   UNL A   1      -9.191 207.687 117.643  0.00  0.00    +0.048 A 
ATOM     16  C   UNL A   1      -7.905 207.359 118.093  0.00  0.00    +0.026 A 
ATOM     17  C   UNL A   1      -7.671 207.045 119.431  0.00  0.00    +0.030 A 
ATOM     18  C   UNL A   1      -8.734 207.065 120.337  0.00  0.00    +0.105 A 
ATOM     19  C   UNL A   1     -10.027 207.368 119.908  0.00  0.00    +0.030 A 
ATOM     20  C   UNL A   1     -10.248 207.688 118.565  0.00  0.00    +0.026 A 
BRANCH  18  21
ATOM     21  S   UNL A   1      -8.434 206.707 122.040  0.00  0.00    +0.056 S 
ATOM     22  O   UNL A   1      -8.126 205.303 122.185  0.00  0.00    -0.153 OA
ATOM     23  O   UNL A   1      -7.611 207.747 122.611  0.00  0.00    -0.153 OA
BRANCH  21  24
ATOM     24  N   UNL A   1      -9.967 206.915 122.689  0.00  0.00    -0.203 NA
ATOM     25  H   UNL A   1     -10.311 206.035 123.071  0.00  0.00    +0.144 HD
ATOM     26  H   UNL A   1      -9.967 207.693 123.349  0.00  0.00    +0.144 HD
ENDBRANCH  21  24
ENDBRANCH  18  21
ENDBRANCH  13  15
ENDBRANCH   4  13
BRANCH  10  27
ATOM     27  C   UNL A   1     -13.859 204.582 112.218  0.00  0.00    +0.339 C 
ATOM     28  O   UNL A   1     -13.917 203.549 111.568  0.00  0.00    -0.245 OA
BRANCH  27  29
ATOM     29  O   UNL A   1     -14.868 205.134 112.937  0.00  0.00    -0.461 OA
BRANCH  29  30
ATOM     30  C   UNL A   1     -16.193 204.941 112.408  0.00  0.00    +0.235 C 
BRANCH  30  31
ATOM     31  C   UNL A   1     -16.674 206.124 111.559  0.00  0.00    +0.021 C 
ATOM     32  C   UNL A   1     -18.110 206.525 111.900  0.00  0.00    +0.010 C 
ATOM     33  C   UNL A   1     -15.735 207.315 111.775  0.00  0.00    +0.010 C 
ENDBRANCH  30  31
ENDBRANCH  29  30
ENDBRANCH  27  29
ENDBRANCH  10  27
TORSDOF 8
ENDMDL
