MODEL 1
REMARK minimizedAffinity -8.82063007
REMARK minimizedRMSD -1
REMARK  Name = *****
REMARK  8 active torsions:
REMARK  status: ('A' for Active; 'I' for Inactive)
REMARK    1  A    between atoms: N_4  and  N_5
REMARK    2  A    between atoms: N_5  and  C_6
REMARK    3  A    between atoms: C_9  and  S_10
REMARK    4  A    between atoms: S_10  and  N_13
REMARK    5  A    between atoms: C_21  and  C_23
REMARK    6  A    between atoms: N_25  and  C_26
REMARK    7  A    between atoms: C_26  and  C_27
REMARK    8  A    between atoms: C_27  and  C_28
REMARK                            x       y       z     vdW  Elec       q    Type
REMARK                         _______ _______ _______ _____ _____    ______ ____
ROOT
ATOM      1  O   UNL A   1     -11.302 206.774 119.583  0.00  0.00    -0.268 OA
ATOM      2  C   UNL A   1     -11.059 206.936 118.406  0.00  0.00    +0.269 C 
ATOM      3  C   UNL A   1     -11.810 206.280 117.242  0.00  0.00    +0.152 C 
ATOM      4  N   UNL A   1     -12.819 205.472 117.280  0.00  0.00    -0.177 NA
ATOM      5  C   UNL A   1     -11.179 206.775 116.025  0.00  0.00    +0.029 A 
ATOM      6  C   UNL A   1     -10.179 207.656 116.430  0.00  0.00    +0.043 A 
ATOM      7  N   UNL A   1     -10.102 207.737 117.818  0.00  0.00    -0.280 N 
ATOM      8  C   UNL A   1      -9.419 208.338 115.509  0.00  0.00    +0.025 A 
ATOM      9  C   UNL A   1      -9.697 208.103 114.155  0.00  0.00    +0.015 A 
ATOM     10  C   UNL A   1     -10.709 207.194 113.737  0.00  0.00    +0.037 A 
ATOM     11  C   UNL A   1     -11.469 206.514 114.698  0.00  0.00    +0.025 A 
ATOM     12  H   UNL A   1      -9.462 208.310 118.346  0.00  0.00    +0.155 HD
ENDROOT
BRANCH  10  13
ATOM     13  C   UNL A   1     -10.903 207.015 112.265  0.00  0.00    +0.244 C 
ATOM     14  O   UNL A   1     -10.009 207.353 111.493  0.00  0.00    -0.270 OA
ATOM     15  N   UNL A   1     -12.090 206.472 111.822  0.00  0.00    -0.311 N 
ATOM     16  H   UNL A   1     -12.879 206.324 112.441  0.00  0.00    +0.149 HD
BRANCH  15  17
ATOM     17  C   UNL A   1     -12.356 206.352 110.398  0.00  0.00    +0.111 C 
BRANCH  17  18
ATOM     18  C   UNL A   1     -13.846 206.371 110.058  0.00  0.00    +0.075 C 
BRANCH  18  19
ATOM     19  C   UNL A   1     -14.668 205.614 111.042  0.00  0.00    +0.060 A 
ATOM     20  C   UNL A   1     -15.926 205.898 111.534  0.00  0.00    +0.107 A 
ATOM     21  N   UNL A   1     -16.214 204.878 112.400  0.00  0.00    -0.351 N 
ATOM     22  C   UNL A   1     -15.141 204.031 112.406  0.00  0.00    +0.196 A 
ATOM     23  N   UNL A   1     -14.184 204.457 111.611  0.00  0.00    -0.241 NA
ATOM     24  H   UNL A   1     -17.061 204.763 112.937  0.00  0.00    +0.166 HD
ENDBRANCH  18  19
ENDBRANCH  17  18
ENDBRANCH  15  17
ENDBRANCH  10  13
BRANCH   4  25
ATOM     25  N   UNL A   1     -13.285 205.157 118.511  0.00  0.00    -0.237 N 
ATOM     26  H   UNL A   1     -13.004 205.682 119.344  0.00  0.00    +0.174 HD
BRANCH  25  27
ATOM     27  C   UNL A   1     -14.376 204.284 118.637  0.00  0.00    +0.048 A 
ATOM     28  C   UNL A   1     -14.864 203.881 119.890  0.00  0.00    +0.026 A 
ATOM     29  C   UNL A   1     -15.974 203.040 119.996  0.00  0.00    +0.030 A 
ATOM     30  C   UNL A   1     -16.608 202.604 118.832  0.00  0.00    +0.105 A 
ATOM     31  C   UNL A   1     -16.137 202.979 117.574  0.00  0.00    +0.030 A 
ATOM     32  C   UNL A   1     -15.029 203.826 117.484  0.00  0.00    +0.026 A 
BRANCH  30  33
ATOM     33  S   UNL A   1     -18.039 201.579 118.955  0.00  0.00    +0.056 S 
ATOM     34  O   UNL A   1     -17.632 200.192 119.026  0.00  0.00    -0.153 OA
ATOM     35  O   UNL A   1     -18.973 202.163 119.887  0.00  0.00    -0.153 OA
BRANCH  33  36
ATOM     36  N   UNL A   1     -18.702 201.792 117.429  0.00  0.00    -0.203 NA
ATOM     37  H   UNL A   1     -18.704 200.915 116.910  0.00  0.00    +0.144 HD
ATOM     38  H   UNL A   1     -19.603 202.263 117.492  0.00  0.00    +0.144 HD
ENDBRANCH  33  36
ENDBRANCH  30  33
ENDBRANCH  25  27
ENDBRANCH   4  25
TORSDOF 8
ENDMDL
MODEL 2
REMARK minimizedAffinity -8.76364708
REMARK minimizedRMSD -1
REMARK  Name = *****
REMARK  8 active torsions:
REMARK  status: ('A' for Active; 'I' for Inactive)
REMARK    1  A    between atoms: N_4  and  N_5
REMARK    2  A    between atoms: N_5  and  C_6
REMARK    3  A    between atoms: C_9  and  S_10
REMARK    4  A    between atoms: S_10  and  N_13
REMARK    5  A    between atoms: C_21  and  C_23
REMARK    6  A    between atoms: N_25  and  C_26
REMARK    7  A    between atoms: C_26  and  C_27
REMARK    8  A    between atoms: C_27  and  C_28
REMARK                            x       y       z     vdW  Elec       q    Type
REMARK                         _______ _______ _______ _____ _____    ______ ____
ROOT
ATOM      1  O   UNL A   1     -12.803 205.938 120.352  0.00  0.00    -0.268 OA
ATOM      2  C   UNL A   1     -12.464 206.219 119.221  0.00  0.00    +0.269 C 
ATOM      3  C   UNL A   1     -12.646 205.327 117.988  0.00  0.00    +0.152 C 
ATOM      4  N   UNL A   1     -13.188 204.157 117.907  0.00  0.00    -0.177 NA
ATOM      5  C   UNL A   1     -12.104 206.080 116.864  0.00  0.00    +0.029 A 
ATOM      6  C   UNL A   1     -11.676 207.302 117.377  0.00  0.00    +0.043 A 
ATOM      7  N   UNL A   1     -11.875 207.375 118.753  0.00  0.00    -0.280 N 
ATOM      8  C   UNL A   1     -11.152 208.271 116.556  0.00  0.00    +0.025 A 
ATOM      9  C   UNL A   1     -11.069 207.971 115.188  0.00  0.00    +0.015 A 
ATOM     10  C   UNL A   1     -11.493 206.718 114.662  0.00  0.00    +0.037 A 
ATOM     11  C   UNL A   1     -12.025 205.749 115.523  0.00  0.00    +0.025 A 
ATOM     12  H   UNL A   1     -11.648 208.159 119.347  0.00  0.00    +0.155 HD
ENDROOT
BRANCH  10  13
ATOM     13  C   UNL A   1     -11.341 206.508 113.189  0.00  0.00    +0.244 C 
ATOM     14  O   UNL A   1     -10.216 206.459 112.699  0.00  0.00    -0.270 OA
ATOM     15  N   UNL A   1     -12.481 206.377 112.425  0.00  0.00    -0.311 N 
ATOM     16  H   UNL A   1     -13.406 206.556 112.801  0.00  0.00    +0.149 HD
BRANCH  15  17
ATOM     17  C   UNL A   1     -12.387 206.249 110.980  0.00  0.00    +0.111 C 
BRANCH  17  18
ATOM     18  C   UNL A   1     -13.745 206.274 110.282  0.00  0.00    +0.075 C 
BRANCH  18  19
ATOM     19  C   UNL A   1     -14.852 205.807 111.162  0.00  0.00    +0.060 A 
ATOM     20  C   UNL A   1     -16.047 206.425 111.468  0.00  0.00    +0.107 A 
ATOM     21  N   UNL A   1     -16.693 205.563 112.313  0.00  0.00    -0.351 N 
ATOM     22  C   UNL A   1     -15.881 204.477 112.489  0.00  0.00    +0.196 A 
ATOM     23  N   UNL A   1     -14.755 204.603 111.823  0.00  0.00    -0.241 NA
ATOM     24  H   UNL A   1     -17.603 205.695 112.729  0.00  0.00    +0.166 HD
ENDBRANCH  18  19
ENDBRANCH  17  18
ENDBRANCH  15  17
ENDBRANCH  10  13
BRANCH   4  25
ATOM     25  N   UNL A   1     -13.665 203.637 119.062  0.00  0.00    -0.237 N 
ATOM     26  H   UNL A   1     -13.129 203.681 119.934  0.00  0.00    +0.174 HD
BRANCH  25  27
ATOM     27  C   UNL A   1     -15.018 203.277 119.155  0.00  0.00    +0.048 A 
ATOM     28  C   UNL A   1     -15.702 203.267 120.381  0.00  0.00    +0.026 A 
ATOM     29  C   UNL A   1     -17.058 202.939 120.447  0.00  0.00    +0.030 A 
ATOM     30  C   UNL A   1     -17.739 202.626 119.271  0.00  0.00    +0.105 A 
ATOM     31  C   UNL A   1     -17.081 202.616 118.041  0.00  0.00    +0.030 A 
ATOM     32  C   UNL A   1     -15.725 202.952 117.989  0.00  0.00    +0.026 A 
BRANCH  30  33
ATOM     33  S   UNL A   1     -19.462 202.256 119.338  0.00  0.00    +0.056 S 
ATOM     34  O   UNL A   1     -19.988 202.169 117.992  0.00  0.00    -0.153 OA
ATOM     35  O   UNL A   1     -19.699 201.236 120.332  0.00  0.00    -0.153 OA
BRANCH  33  36
ATOM     36  N   UNL A   1     -20.060 203.686 119.979  0.00  0.00    -0.203 NA
ATOM     37  H   UNL A   1     -20.672 204.153 119.313  0.00  0.00    +0.144 HD
ATOM     38  H   UNL A   1     -20.462 203.525 120.901  0.00  0.00    +0.144 HD
ENDBRANCH  33  36
ENDBRANCH  30  33
ENDBRANCH  25  27
ENDBRANCH   4  25
TORSDOF 8
ENDMDL
MODEL 3
REMARK minimizedAffinity -8.61567593
REMARK minimizedRMSD -1
REMARK  Name = *****
REMARK  8 active torsions:
REMARK  status: ('A' for Active; 'I' for Inactive)
REMARK    1  A    between atoms: N_4  and  N_5
REMARK    2  A    between atoms: N_5  and  C_6
REMARK    3  A    between atoms: C_9  and  S_10
REMARK    4  A    between atoms: S_10  and  N_13
REMARK    5  A    between atoms: C_21  and  C_23
REMARK    6  A    between atoms: N_25  and  C_26
REMARK    7  A    between atoms: C_26  and  C_27
REMARK    8  A    between atoms: C_27  and  C_28
REMARK                            x       y       z     vdW  Elec       q    Type
REMARK                         _______ _______ _______ _____ _____    ______ ____
ROOT
ATOM      1  O   UNL A   1     -15.954 204.131 112.666  0.00  0.00    -0.268 OA
ATOM      2  C   UNL A   1     -14.928 204.718 112.390  0.00  0.00    +0.269 C 
ATOM      3  C   UNL A   1     -13.759 204.968 113.350  0.00  0.00    +0.152 C 
ATOM      4  N   UNL A   1     -13.631 204.606 114.584  0.00  0.00    -0.177 NA
ATOM      5  C   UNL A   1     -12.755 205.694 112.581  0.00  0.00    +0.029 A 
ATOM      6  C   UNL A   1     -13.268 205.829 111.293  0.00  0.00    +0.043 A 
ATOM      7  N   UNL A   1     -14.539 205.272 111.188  0.00  0.00    -0.280 N 
ATOM      8  C   UNL A   1     -12.535 206.434 110.299  0.00  0.00    +0.025 A 
ATOM      9  C   UNL A   1     -11.260 206.904 110.644  0.00  0.00    +0.015 A 
ATOM     10  C   UNL A   1     -10.739 206.779 111.962  0.00  0.00    +0.037 A 
ATOM     11  C   UNL A   1     -11.507 206.156 112.955  0.00  0.00    +0.025 A 
ATOM     12  H   UNL A   1     -15.110 205.244 110.357  0.00  0.00    +0.155 HD
ENDROOT
BRANCH  10  13
ATOM     13  C   UNL A   1      -9.372 207.332 112.212  0.00  0.00    +0.244 C 
ATOM     14  O   UNL A   1      -8.424 206.926 111.544  0.00  0.00    -0.270 OA
ATOM     15  N   UNL A   1      -9.222 208.288 113.195  0.00  0.00    -0.311 N 
ATOM     16  H   UNL A   1      -9.969 208.521 113.838  0.00  0.00    +0.149 HD
BRANCH  15  17
ATOM     17  C   UNL A   1      -7.902 208.798 113.528  0.00  0.00    +0.111 C 
BRANCH  17  18
ATOM     18  C   UNL A   1      -7.752 209.168 115.002  0.00  0.00    +0.075 C 
BRANCH  18  19
ATOM     19  C   UNL A   1      -8.140 208.057 115.915  0.00  0.00    +0.060 A 
ATOM     20  C   UNL A   1      -7.344 207.253 116.704  0.00  0.00    +0.107 A 
ATOM     21  N   UNL A   1      -8.207 206.405 117.343  0.00  0.00    -0.351 N 
ATOM     22  C   UNL A   1      -9.471 206.715 116.925  0.00  0.00    +0.196 A 
ATOM     23  N   UNL A   1      -9.463 207.695 116.048  0.00  0.00    -0.241 NA
ATOM     24  H   UNL A   1      -7.963 205.683 118.006  0.00  0.00    +0.166 HD
ENDBRANCH  18  19
ENDBRANCH  17  18
ENDBRANCH  15  17
ENDBRANCH  10  13
BRANCH   4  25
ATOM     25  N   UNL A   1     -14.663 203.907 115.112  0.00  0.00    -0.237 N 
ATOM     26  H   UNL A   1     -15.254 203.302 114.534  0.00  0.00    +0.174 HD
BRANCH  25  27
ATOM     27  C   UNL A   1     -14.774 203.777 116.504  0.00  0.00    +0.048 A 
ATOM     28  C   UNL A   1     -14.274 204.750 117.383  0.00  0.00    +0.026 A 
ATOM     29  C   UNL A   1     -14.426 204.618 118.766  0.00  0.00    +0.030 A 
ATOM     30  C   UNL A   1     -15.095 203.504 119.272  0.00  0.00    +0.105 A 
ATOM     31  C   UNL A   1     -15.591 202.516 118.422  0.00  0.00    +0.030 A 
ATOM     32  C   UNL A   1     -15.436 202.664 117.040  0.00  0.00    +0.026 A 
BRANCH  30  33
ATOM     33  S   UNL A   1     -15.334 203.352 121.014  0.00  0.00    +0.056 S 
ATOM     34  O   UNL A   1     -15.643 204.651 121.572  0.00  0.00    -0.153 OA
ATOM     35  O   UNL A   1     -16.127 202.177 121.292  0.00  0.00    -0.153 OA
BRANCH  33  36
ATOM     36  N   UNL A   1     -13.772 202.992 121.508  0.00  0.00    -0.203 NA
ATOM     37  H   UNL A   1     -13.403 203.731 122.105  0.00  0.00    +0.144 HD
ATOM     38  H   UNL A   1     -13.727 202.053 121.900  0.00  0.00    +0.144 HD
ENDBRANCH  33  36
ENDBRANCH  30  33
ENDBRANCH  25  27
ENDBRANCH   4  25
TORSDOF 8
ENDMDL
MODEL 4
REMARK minimizedAffinity -8.53672981
REMARK minimizedRMSD -1
REMARK  Name = *****
REMARK  8 active torsions:
REMARK  status: ('A' for Active; 'I' for Inactive)
REMARK    1  A    between atoms: N_4  and  N_5
REMARK    2  A    between atoms: N_5  and  C_6
REMARK    3  A    between atoms: C_9  and  S_10
REMARK    4  A    between atoms: S_10  and  N_13
REMARK    5  A    between atoms: C_21  and  C_23
REMARK    6  A    between atoms: N_25  and  C_26
REMARK    7  A    between atoms: C_26  and  C_27
REMARK    8  A    between atoms: C_27  and  C_28
REMARK                            x       y       z     vdW  Elec       q    Type
REMARK                         _______ _______ _______ _____ _____    ______ ____
ROOT
ATOM      1  O   UNL A   1      -7.142 207.431 113.412  0.00  0.00    -0.268 OA
ATOM      2  C   UNL A   1      -8.202 207.195 112.873  0.00  0.00    +0.269 C 
ATOM      3  C   UNL A   1      -9.489 206.767 113.587  0.00  0.00    +0.152 C 
ATOM      4  N   UNL A   1      -9.697 206.597 114.851  0.00  0.00    -0.177 NA
ATOM      5  C   UNL A   1     -10.495 206.609 112.544  0.00  0.00    +0.029 A 
ATOM      6  C   UNL A   1      -9.872 206.941 111.342  0.00  0.00    +0.043 A 
ATOM      7  N   UNL A   1      -8.533 207.268 111.536  0.00  0.00    -0.280 N 
ATOM      8  C   UNL A   1     -10.571 206.940 110.158  0.00  0.00    +0.025 A 
ATOM      9  C   UNL A   1     -11.928 206.590 110.219  0.00  0.00    +0.015 A 
ATOM     10  C   UNL A   1     -12.564 206.238 111.443  0.00  0.00    +0.037 A 
ATOM     11  C   UNL A   1     -11.827 206.250 112.635  0.00  0.00    +0.025 A 
ATOM     12  H   UNL A   1      -7.879 207.545 110.819  0.00  0.00    +0.155 HD
ENDROOT
BRANCH  10  13
ATOM     13  C   UNL A   1     -14.012 205.869 111.379  0.00  0.00    +0.244 C 
ATOM     14  O   UNL A   1     -14.693 206.258 110.434  0.00  0.00    -0.270 OA
ATOM     15  N   UNL A   1     -14.536 205.098 112.395  0.00  0.00    -0.311 N 
ATOM     16  H   UNL A   1     -14.016 204.895 113.241  0.00  0.00    +0.149 HD
BRANCH  15  17
ATOM     17  C   UNL A   1     -15.955 204.780 112.417  0.00  0.00    +0.111 C 
BRANCH  17  18
ATOM     18  C   UNL A   1     -16.758 205.670 113.364  0.00  0.00    +0.075 C 
BRANCH  18  19
ATOM     19  C   UNL A   1     -16.023 205.980 114.622  0.00  0.00    +0.060 A 
ATOM     20  C   UNL A   1     -15.856 205.206 115.751  0.00  0.00    +0.107 A 
ATOM     21  N   UNL A   1     -15.095 205.964 116.600  0.00  0.00    -0.351 N 
ATOM     22  C   UNL A   1     -14.837 207.149 115.969  0.00  0.00    +0.196 A 
ATOM     23  N   UNL A   1     -15.399 207.197 114.781  0.00  0.00    -0.241 NA
ATOM     24  H   UNL A   1     -14.776 205.703 117.521  0.00  0.00    +0.166 HD
ENDBRANCH  18  19
ENDBRANCH  17  18
ENDBRANCH  15  17
ENDBRANCH  10  13
BRANCH   4  25
ATOM     25  N   UNL A   1      -8.641 206.826 115.667  0.00  0.00    -0.237 N 
ATOM     26  H   UNL A   1      -7.764 207.220 115.313  0.00  0.00    +0.174 HD
BRANCH  25  27
ATOM     27  C   UNL A   1      -8.817 206.792 117.058  0.00  0.00    +0.048 A 
ATOM     28  C   UNL A   1      -9.968 206.246 117.648  0.00  0.00    +0.026 A 
ATOM     29  C   UNL A   1     -10.109 206.189 119.036  0.00  0.00    +0.030 A 
ATOM     30  C   UNL A   1      -9.081 206.676 119.843  0.00  0.00    +0.105 A 
ATOM     31  C   UNL A   1      -7.932 207.235 119.283  0.00  0.00    +0.030 A 
ATOM     32  C   UNL A   1      -7.803 207.280 117.892  0.00  0.00    +0.026 A 
BRANCH  30  33
ATOM     33  S   UNL A   1      -9.227 206.566 121.598  0.00  0.00    +0.056 S 
ATOM     34  O   UNL A   1      -8.557 205.372 122.063  0.00  0.00    -0.153 OA
ATOM     35  O   UNL A   1      -8.996 207.866 122.184  0.00  0.00    -0.153 OA
BRANCH  33  36
ATOM     36  N   UNL A   1     -10.871 206.268 121.751  0.00  0.00    -0.203 NA
ATOM     37  H   UNL A   1     -11.034 205.348 122.158  0.00  0.00    +0.144 HD
ATOM     38  H   UNL A   1     -11.334 207.042 122.225  0.00  0.00    +0.144 HD
ENDBRANCH  33  36
ENDBRANCH  30  33
ENDBRANCH  25  27
ENDBRANCH   4  25
TORSDOF 8
ENDMDL
MODEL 5
REMARK minimizedAffinity -8.44834995
REMARK minimizedRMSD -1
REMARK  Name = *****
REMARK  8 active torsions:
REMARK  status: ('A' for Active; 'I' for Inactive)
REMARK    1  A    between atoms: N_4  and  N_5
REMARK    2  A    between atoms: N_5  and  C_6
REMARK    3  A    between atoms: C_9  and  S_10
REMARK    4  A    between atoms: S_10  and  N_13
REMARK    5  A    between atoms: C_21  and  C_23
REMARK    6  A    between atoms: N_25  and  C_26
REMARK    7  A    between atoms: C_26  and  C_27
REMARK    8  A    between atoms: C_27  and  C_28
REMARK                            x       y       z     vdW  Elec       q    Type
REMARK                         _______ _______ _______ _____ _____    ______ ____
ROOT
ATOM      1  O   UNL A   1     -13.120 205.379 121.663  0.00  0.00    -0.268 OA
ATOM      2  C   UNL A   1     -12.867 205.656 120.509  0.00  0.00    +0.269 C 
ATOM      3  C   UNL A   1     -13.439 204.947 119.276  0.00  0.00    +0.152 C 
ATOM      4  N   UNL A   1     -14.279 203.967 119.221  0.00  0.00    -0.177 NA
ATOM      5  C   UNL A   1     -12.866 205.626 118.120  0.00  0.00    +0.029 A 
ATOM      6  C   UNL A   1     -12.064 206.649 118.621  0.00  0.00    +0.043 A 
ATOM      7  N   UNL A   1     -12.056 206.656 120.013  0.00  0.00    -0.280 N 
ATOM      8  C   UNL A   1     -11.411 207.515 117.777  0.00  0.00    +0.025 A 
ATOM      9  C   UNL A   1     -11.590 207.319 116.400  0.00  0.00    +0.015 A 
ATOM     10  C   UNL A   1     -12.397 206.266 115.884  0.00  0.00    +0.037 A 
ATOM     11  C   UNL A   1     -13.052 205.399 116.769  0.00  0.00    +0.025 A 
ATOM     12  H   UNL A   1     -11.554 207.303 120.602  0.00  0.00    +0.155 HD
ENDROOT
BRANCH  10  13
ATOM     13  C   UNL A   1     -12.499 206.148 114.397  0.00  0.00    +0.244 C 
ATOM     14  O   UNL A   1     -12.208 207.112 113.693  0.00  0.00    -0.270 OA
ATOM     15  N   UNL A   1     -12.920 204.949 113.863  0.00  0.00    -0.311 N 
ATOM     16  H   UNL A   1     -13.293 204.203 114.439  0.00  0.00    +0.149 HD
BRANCH  15  17
ATOM     17  C   UNL A   1     -13.110 204.810 112.428  0.00  0.00    +0.111 C 
BRANCH  17  18
ATOM     18  C   UNL A   1     -14.420 204.118 112.056  0.00  0.00    +0.075 C 
BRANCH  18  19
ATOM     19  C   UNL A   1     -15.577 205.055 112.028  0.00  0.00    +0.060 A 
ATOM     20  C   UNL A   1     -15.714 206.257 111.364  0.00  0.00    +0.107 A 
ATOM     21  N   UNL A   1     -16.971 206.699 111.675  0.00  0.00    -0.351 N 
ATOM     22  C   UNL A   1     -17.539 205.771 112.503  0.00  0.00    +0.196 A 
ATOM     23  N   UNL A   1     -16.716 204.777 112.751  0.00  0.00    -0.241 NA
ATOM     24  H   UNL A   1     -17.408 207.550 111.352  0.00  0.00    +0.166 HD
ENDBRANCH  18  19
ENDBRANCH  17  18
ENDBRANCH  15  17
ENDBRANCH  10  13
BRANCH   4  25
ATOM     25  N   UNL A   1     -14.724 203.494 120.409  0.00  0.00    -0.237 N 
ATOM     26  H   UNL A   1     -14.078 203.210 121.151  0.00  0.00    +0.174 HD
BRANCH  25  27
ATOM     27  C   UNL A   1     -16.075 203.644 120.754  0.00  0.00    +0.048 A 
ATOM     28  C   UNL A   1     -16.493 204.542 121.748  0.00  0.00    +0.026 A 
ATOM     29  C   UNL A   1     -17.847 204.702 122.053  0.00  0.00    +0.030 A 
ATOM     30  C   UNL A   1     -18.794 203.961 121.347  0.00  0.00    +0.105 A 
ATOM     31  C   UNL A   1     -18.405 203.051 120.362  0.00  0.00    +0.030 A 
ATOM     32  C   UNL A   1     -17.048 202.906 120.065  0.00  0.00    +0.026 A 
BRANCH  30  33
ATOM     33  S   UNL A   1     -20.509 204.189 121.691  0.00  0.00    +0.056 S 
ATOM     34  O   UNL A   1     -21.255 203.055 121.190  0.00  0.00    -0.153 OA
ATOM     35  O   UNL A   1     -20.669 204.693 123.034  0.00  0.00    -0.153 OA
BRANCH  33  36
ATOM     36  N   UNL A   1     -20.861 205.468 120.664  0.00  0.00    -0.203 NA
ATOM     37  H   UNL A   1     -21.531 205.185 119.951  0.00  0.00    +0.144 HD
ATOM     38  H   UNL A   1     -21.118 206.297 121.198  0.00  0.00    +0.144 HD
ENDBRANCH  33  36
ENDBRANCH  30  33
ENDBRANCH  25  27
ENDBRANCH   4  25
TORSDOF 8
ENDMDL
MODEL 6
REMARK minimizedAffinity -8.38911819
REMARK minimizedRMSD -1
REMARK  Name = *****
REMARK  8 active torsions:
REMARK  status: ('A' for Active; 'I' for Inactive)
REMARK    1  A    between atoms: N_4  and  N_5
REMARK    2  A    between atoms: N_5  and  C_6
REMARK    3  A    between atoms: C_9  and  S_10
REMARK    4  A    between atoms: S_10  and  N_13
REMARK    5  A    between atoms: C_21  and  C_23
REMARK    6  A    between atoms: N_25  and  C_26
REMARK    7  A    between atoms: C_26  and  C_27
REMARK    8  A    between atoms: C_27  and  C_28
REMARK                            x       y       z     vdW  Elec       q    Type
REMARK                         _______ _______ _______ _____ _____    ______ ____
ROOT
ATOM      1  O   UNL A   1     -17.211 205.413 114.255  0.00  0.00    -0.268 OA
ATOM      2  C   UNL A   1     -16.283 205.660 113.514  0.00  0.00    +0.269 C 
ATOM      3  C   UNL A   1     -14.816 205.799 113.938  0.00  0.00    +0.152 C 
ATOM      4  N   UNL A   1     -14.297 205.670 115.114  0.00  0.00    -0.177 NA
ATOM      5  C   UNL A   1     -14.070 206.084 112.719  0.00  0.00    +0.029 A 
ATOM      6  C   UNL A   1     -14.997 206.082 111.679  0.00  0.00    +0.043 A 
ATOM      7  N   UNL A   1     -16.287 205.848 112.147  0.00  0.00    -0.280 N 
ATOM      8  C   UNL A   1     -14.602 206.274 110.377  0.00  0.00    +0.025 A 
ATOM      9  C   UNL A   1     -13.232 206.472 110.149  0.00  0.00    +0.015 A 
ATOM     10  C   UNL A   1     -12.284 206.488 111.210  0.00  0.00    +0.037 A 
ATOM     11  C   UNL A   1     -12.715 206.287 112.528  0.00  0.00    +0.025 A 
ATOM     12  H   UNL A   1     -17.124 205.797 111.585  0.00  0.00    +0.155 HD
ENDROOT
BRANCH  10  13
ATOM     13  C   UNL A   1     -10.853 206.723 110.845  0.00  0.00    +0.244 C 
ATOM     14  O   UNL A   1     -10.519 206.695 109.663  0.00  0.00    -0.270 OA
ATOM     15  N   UNL A   1      -9.950 206.966 111.858  0.00  0.00    -0.311 N 
ATOM     16  H   UNL A   1     -10.192 206.852 112.835  0.00  0.00    +0.149 HD
BRANCH  15  17
ATOM     17  C   UNL A   1      -8.536 207.123 111.559  0.00  0.00    +0.111 C 
BRANCH  17  18
ATOM     18  C   UNL A   1      -7.657 207.175 112.808  0.00  0.00    +0.075 C 
BRANCH  18  19
ATOM     19  C   UNL A   1      -8.373 207.728 113.990  0.00  0.00    +0.060 A 
ATOM     20  C   UNL A   1      -8.433 209.027 114.449  0.00  0.00    +0.107 A 
ATOM     21  N   UNL A   1      -9.229 208.982 115.562  0.00  0.00    -0.351 N 
ATOM     22  C   UNL A   1      -9.612 207.681 115.738  0.00  0.00    +0.196 A 
ATOM     23  N   UNL A   1      -9.097 206.897 114.817  0.00  0.00    -0.241 NA
ATOM     24  H   UNL A   1      -9.493 209.761 116.148  0.00  0.00    +0.166 HD
ENDBRANCH  18  19
ENDBRANCH  17  18
ENDBRANCH  15  17
ENDBRANCH  10  13
BRANCH   4  25
ATOM     25  N   UNL A   1     -15.155 205.369 116.117  0.00  0.00    -0.237 N 
ATOM     26  H   UNL A   1     -16.138 205.147 115.935  0.00  0.00    +0.174 HD
BRANCH  25  27
ATOM     27  C   UNL A   1     -14.656 205.083 117.396  0.00  0.00    +0.048 A 
ATOM     28  C   UNL A   1     -13.715 205.911 118.029  0.00  0.00    +0.026 A 
ATOM     29  C   UNL A   1     -13.257 205.627 119.318  0.00  0.00    +0.030 A 
ATOM     30  C   UNL A   1     -13.754 204.507 119.984  0.00  0.00    +0.105 A 
ATOM     31  C   UNL A   1     -14.680 203.661 119.374  0.00  0.00    +0.030 A 
ATOM     32  C   UNL A   1     -15.133 203.960 118.086  0.00  0.00    +0.026 A 
BRANCH  30  33
ATOM     33  S   UNL A   1     -13.217 204.166 121.630  0.00  0.00    +0.056 S 
ATOM     34  O   UNL A   1     -13.169 205.399 122.385  0.00  0.00    -0.153 OA
ATOM     35  O   UNL A   1     -13.882 202.981 122.118  0.00  0.00    -0.153 OA
BRANCH  33  36
ATOM     36  N   UNL A   1     -11.623 203.729 121.349  0.00  0.00    -0.203 NA
ATOM     37  H   UNL A   1     -10.984 204.391 121.788  0.00  0.00    +0.144 HD
ATOM     38  H   UNL A   1     -11.470 202.751 121.591  0.00  0.00    +0.144 HD
ENDBRANCH  33  36
ENDBRANCH  30  33
ENDBRANCH  25  27
ENDBRANCH   4  25
TORSDOF 8
ENDMDL
MODEL 7
REMARK minimizedAffinity -8.23418713
REMARK minimizedRMSD -1
REMARK  Name = *****
REMARK  8 active torsions:
REMARK  status: ('A' for Active; 'I' for Inactive)
REMARK    1  A    between atoms: N_4  and  N_5
REMARK    2  A    between atoms: N_5  and  C_6
REMARK    3  A    between atoms: C_9  and  S_10
REMARK    4  A    between atoms: S_10  and  N_13
REMARK    5  A    between atoms: C_21  and  C_23
REMARK    6  A    between atoms: N_25  and  C_26
REMARK    7  A    between atoms: C_26  and  C_27
REMARK    8  A    between atoms: C_27  and  C_28
REMARK                            x       y       z     vdW  Elec       q    Type
REMARK                         _______ _______ _______ _____ _____    ______ ____
ROOT
ATOM      1  O   UNL A   1      -8.026 207.009 117.553  0.00  0.00    -0.268 OA
ATOM      2  C   UNL A   1      -8.426 206.980 116.408  0.00  0.00    +0.269 C 
ATOM      3  C   UNL A   1      -9.856 206.644 115.972  0.00  0.00    +0.152 C 
ATOM      4  N   UNL A   1     -10.881 206.354 116.705  0.00  0.00    -0.177 NA
ATOM      5  C   UNL A   1      -9.868 206.746 114.518  0.00  0.00    +0.029 A 
ATOM      6  C   UNL A   1      -8.585 207.132 114.140  0.00  0.00    +0.043 A 
ATOM      7  N   UNL A   1      -7.743 207.255 115.242  0.00  0.00    -0.280 N 
ATOM      8  C   UNL A   1      -8.274 207.364 112.821  0.00  0.00    +0.025 A 
ATOM      9  C   UNL A   1      -9.304 207.192 111.884  0.00  0.00    +0.015 A 
ATOM     10  C   UNL A   1     -10.613 206.784 112.266  0.00  0.00    +0.037 A 
ATOM     11  C   UNL A   1     -10.901 206.557 113.618  0.00  0.00    +0.025 A 
ATOM     12  H   UNL A   1      -6.771 207.526 115.222  0.00  0.00    +0.155 HD
ENDROOT
BRANCH  10  13
ATOM     13  C   UNL A   1     -11.623 206.620 111.176  0.00  0.00    +0.244 C 
ATOM     14  O   UNL A   1     -11.348 206.989 110.037  0.00  0.00    -0.270 OA
ATOM     15  N   UNL A   1     -12.840 206.054 111.491  0.00  0.00    -0.311 N 
ATOM     16  H   UNL A   1     -13.122 205.879 112.448  0.00  0.00    +0.149 HD
BRANCH  15  17
ATOM     17  C   UNL A   1     -13.883 205.945 110.482  0.00  0.00    +0.111 C 
BRANCH  17  18
ATOM     18  C   UNL A   1     -15.292 206.083 111.054  0.00  0.00    +0.075 C 
BRANCH  18  19
ATOM     19  C   UNL A   1     -15.361 205.740 112.502  0.00  0.00    +0.060 A 
ATOM     20  C   UNL A   1     -15.882 206.469 113.551  0.00  0.00    +0.107 A 
ATOM     21  N   UNL A   1     -15.693 205.690 114.660  0.00  0.00    -0.351 N 
ATOM     22  C   UNL A   1     -15.073 204.542 114.254  0.00  0.00    +0.196 A 
ATOM     23  N   UNL A   1     -14.842 204.549 112.960  0.00  0.00    -0.241 NA
ATOM     24  H   UNL A   1     -15.963 205.914 115.607  0.00  0.00    +0.166 HD
ENDBRANCH  18  19
ENDBRANCH  17  18
ENDBRANCH  15  17
ENDBRANCH  10  13
BRANCH   4  25
ATOM     25  N   UNL A   1     -10.675 206.344 118.043  0.00  0.00    -0.237 N 
ATOM     26  H   UNL A   1      -9.772 206.606 118.450  0.00  0.00    +0.174 HD
BRANCH  25  27
ATOM     27  C   UNL A   1     -11.770 206.244 118.914  0.00  0.00    +0.048 A 
ATOM     28  C   UNL A   1     -11.956 205.131 119.749  0.00  0.00    +0.026 A 
ATOM     29  C   UNL A   1     -13.034 205.067 120.635  0.00  0.00    +0.030 A 
ATOM     30  C   UNL A   1     -13.931 206.134 120.691  0.00  0.00    +0.105 A 
ATOM     31  C   UNL A   1     -13.777 207.246 119.864  0.00  0.00    +0.030 A 
ATOM     32  C   UNL A   1     -12.690 207.299 118.986  0.00  0.00    +0.026 A 
BRANCH  30  33
ATOM     33  S   UNL A   1     -15.269 206.083 121.839  0.00  0.00    +0.056 S 
ATOM     34  O   UNL A   1     -16.012 204.855 121.659  0.00  0.00    -0.153 OA
ATOM     35  O   UNL A   1     -14.813 206.533 123.134  0.00  0.00    -0.153 OA
BRANCH  33  36
ATOM     36  N   UNL A   1     -16.241 207.308 121.233  0.00  0.00    -0.203 NA
ATOM     37  H   UNL A   1     -17.132 206.935 120.909  0.00  0.00    +0.144 HD
ATOM     38  H   UNL A   1     -16.308 208.077 121.898  0.00  0.00    +0.144 HD
ENDBRANCH  33  36
ENDBRANCH  30  33
ENDBRANCH  25  27
ENDBRANCH   4  25
TORSDOF 8
ENDMDL
MODEL 8
REMARK minimizedAffinity -8.21558857
REMARK minimizedRMSD -1
REMARK  Name = *****
REMARK  8 active torsions:
REMARK  status: ('A' for Active; 'I' for Inactive)
REMARK    1  A    between atoms: N_4  and  N_5
REMARK    2  A    between atoms: N_5  and  C_6
REMARK    3  A    between atoms: C_9  and  S_10
REMARK    4  A    between atoms: S_10  and  N_13
REMARK    5  A    between atoms: C_21  and  C_23
REMARK    6  A    between atoms: N_25  and  C_26
REMARK    7  A    between atoms: C_26  and  C_27
REMARK    8  A    between atoms: C_27  and  C_28
REMARK                            x       y       z     vdW  Elec       q    Type
REMARK                         _______ _______ _______ _____ _____    ______ ____
ROOT
ATOM      1  O   UNL A   1      -6.680 207.820 113.823  0.00  0.00    -0.268 OA
ATOM      2  C   UNL A   1      -7.693 207.486 113.246  0.00  0.00    +0.269 C 
ATOM      3  C   UNL A   1      -8.958 206.934 113.913  0.00  0.00    +0.152 C 
ATOM      4  N   UNL A   1      -9.194 206.739 115.168  0.00  0.00    -0.177 NA
ATOM      5  C   UNL A   1      -9.907 206.686 112.834  0.00  0.00    +0.029 A 
ATOM      6  C   UNL A   1      -9.276 207.081 111.656  0.00  0.00    +0.043 A 
ATOM      7  N   UNL A   1      -7.982 207.534 111.898  0.00  0.00    -0.280 N 
ATOM      8  C   UNL A   1      -9.928 207.019 110.448  0.00  0.00    +0.025 A 
ATOM      9  C   UNL A   1     -11.247 206.541 110.459  0.00  0.00    +0.015 A 
ATOM     10  C   UNL A   1     -11.889 206.125 111.659  0.00  0.00    +0.037 A 
ATOM     11  C   UNL A   1     -11.201 206.201 112.876  0.00  0.00    +0.025 A 
ATOM     12  H   UNL A   1      -7.332 207.876 111.206  0.00  0.00    +0.155 HD
ENDROOT
BRANCH  10  13
ATOM     13  C   UNL A   1     -13.292 205.619 111.542  0.00  0.00    +0.244 C 
ATOM     14  O   UNL A   1     -13.983 205.970 110.589  0.00  0.00    -0.270 OA
ATOM     15  N   UNL A   1     -13.765 204.770 112.520  0.00  0.00    -0.311 N 
ATOM     16  H   UNL A   1     -13.251 204.591 113.374  0.00  0.00    +0.149 HD
BRANCH  15  17
ATOM     17  C   UNL A   1     -15.146 204.315 112.492  0.00  0.00    +0.111 C 
BRANCH  17  18
ATOM     18  C   UNL A   1     -16.060 205.102 113.429  0.00  0.00    +0.075 C 
BRANCH  18  19
ATOM     19  C   UNL A   1     -17.149 205.815 112.705  0.00  0.00    +0.060 A 
ATOM     20  C   UNL A   1     -17.064 206.718 111.666  0.00  0.00    +0.107 A 
ATOM     21  N   UNL A   1     -18.358 207.056 111.374  0.00  0.00    -0.351 N 
ATOM     22  C   UNL A   1     -19.165 206.363 112.232  0.00  0.00    +0.196 A 
ATOM     23  N   UNL A   1     -18.465 205.619 113.060  0.00  0.00    -0.241 NA
ATOM     24  H   UNL A   1     -18.667 207.696 110.657  0.00  0.00    +0.166 HD
ENDBRANCH  18  19
ENDBRANCH  17  18
ENDBRANCH  15  17
ENDBRANCH  10  13
BRANCH   4  25
ATOM     25  N   UNL A   1      -8.195 207.064 116.022  0.00  0.00    -0.237 N 
ATOM     26  H   UNL A   1      -7.365 207.577 115.708  0.00  0.00    +0.174 HD
BRANCH  25  27
ATOM     27  C   UNL A   1      -8.399 206.953 117.405  0.00  0.00    +0.048 A 
ATOM     28  C   UNL A   1      -7.372 206.562 118.278  0.00  0.00    +0.026 A 
ATOM     29  C   UNL A   1      -7.586 206.492 119.657  0.00  0.00    +0.030 A 
ATOM     30  C   UNL A   1      -8.840 206.827 120.167  0.00  0.00    +0.105 A 
ATOM     31  C   UNL A   1      -9.882 207.207 119.321  0.00  0.00    +0.030 A 
ATOM     32  C   UNL A   1      -9.651 207.277 117.944  0.00  0.00    +0.026 A 
BRANCH  30  33
ATOM     33  S   UNL A   1      -9.107 206.787 121.911  0.00  0.00    +0.056 S 
ATOM     34  O   UNL A   1      -8.413 205.651 122.478  0.00  0.00    -0.153 OA
ATOM     35  O   UNL A   1      -8.984 208.121 122.449  0.00  0.00    -0.153 OA
BRANCH  33  36
ATOM     36  N   UNL A   1     -10.740 206.408 121.963  0.00  0.00    -0.203 NA
ATOM     37  H   UNL A   1     -10.886 205.499 122.401  0.00  0.00    +0.144 HD
ATOM     38  H   UNL A   1     -11.274 207.176 122.366  0.00  0.00    +0.144 HD
ENDBRANCH  33  36
ENDBRANCH  30  33
ENDBRANCH  25  27
ENDBRANCH   4  25
TORSDOF 8
ENDMDL
MODEL 9
REMARK minimizedAffinity -8.06658268
REMARK minimizedRMSD -1
REMARK  Name = *****
REMARK  8 active torsions:
REMARK  status: ('A' for Active; 'I' for Inactive)
REMARK    1  A    between atoms: N_4  and  N_5
REMARK    2  A    between atoms: N_5  and  C_6
REMARK    3  A    between atoms: C_9  and  S_10
REMARK    4  A    between atoms: S_10  and  N_13
REMARK    5  A    between atoms: C_21  and  C_23
REMARK    6  A    between atoms: N_25  and  C_26
REMARK    7  A    between atoms: C_26  and  C_27
REMARK    8  A    between atoms: C_27  and  C_28
REMARK                            x       y       z     vdW  Elec       q    Type
REMARK                         _______ _______ _______ _____ _____    ______ ____
ROOT
ATOM      1  O   UNL A   1     -10.762 208.042 119.161  0.00  0.00    -0.268 OA
ATOM      2  C   UNL A   1     -10.705 207.829 117.968  0.00  0.00    +0.269 C 
ATOM      3  C   UNL A   1     -11.890 207.456 117.071  0.00  0.00    +0.152 C 
ATOM      4  N   UNL A   1     -13.135 207.318 117.388  0.00  0.00    -0.177 NA
ATOM      5  C   UNL A   1     -11.347 207.309 115.726  0.00  0.00    +0.029 A 
ATOM      6  C   UNL A   1      -9.987 207.596 115.817  0.00  0.00    +0.043 A 
ATOM      7  N   UNL A   1      -9.613 207.885 117.127  0.00  0.00    -0.280 N 
ATOM      8  C   UNL A   1      -9.186 207.593 114.700  0.00  0.00    +0.025 A 
ATOM      9  C   UNL A   1      -9.800 207.288 113.476  0.00  0.00    +0.015 A 
ATOM     10  C   UNL A   1     -11.187 206.982 113.382  0.00  0.00    +0.037 A 
ATOM     11  C   UNL A   1     -11.979 206.994 114.537  0.00  0.00    +0.025 A 
ATOM     12  H   UNL A   1      -8.685 208.127 117.441  0.00  0.00    +0.155 HD
ENDROOT
BRANCH  10  13
ATOM     13  C   UNL A   1     -11.725 206.657 112.024  0.00  0.00    +0.244 C 
ATOM     14  O   UNL A   1     -11.129 207.059 111.028  0.00  0.00    -0.270 OA
ATOM     15  N   UNL A   1     -12.881 205.912 111.939  0.00  0.00    -0.311 N 
ATOM     16  H   UNL A   1     -13.447 205.700 112.753  0.00  0.00    +0.149 HD
BRANCH  15  17
ATOM     17  C   UNL A   1     -13.484 205.638 110.645  0.00  0.00    +0.111 C 
BRANCH  17  18
ATOM     18  C   UNL A   1     -14.749 206.455 110.384  0.00  0.00    +0.075 C 
BRANCH  18  19
ATOM     19  C   UNL A   1     -15.860 206.105 111.311  0.00  0.00    +0.060 A 
ATOM     20  C   UNL A   1     -17.042 206.774 111.553  0.00  0.00    +0.107 A 
ATOM     21  N   UNL A   1     -17.701 206.019 112.485  0.00  0.00    -0.351 N 
ATOM     22  C   UNL A   1     -16.909 204.942 112.773  0.00  0.00    +0.196 A 
ATOM     23  N   UNL A   1     -15.783 204.976 112.096  0.00  0.00    -0.241 NA
ATOM     24  H   UNL A   1     -18.606 206.212 112.888  0.00  0.00    +0.166 HD
ENDBRANCH  18  19
ENDBRANCH  17  18
ENDBRANCH  15  17
ENDBRANCH  10  13
BRANCH   4  25
ATOM     25  N   UNL A   1     -13.448 207.531 118.688  0.00  0.00    -0.237 N 
ATOM     26  H   UNL A   1     -13.539 208.477 119.072  0.00  0.00    +0.174 HD
BRANCH  25  27
ATOM     27  C   UNL A   1     -13.928 206.470 119.470  0.00  0.00    +0.048 A 
ATOM     28  C   UNL A   1     -14.489 206.677 120.740  0.00  0.00    +0.026 A 
ATOM     29  C   UNL A   1     -14.993 205.611 121.488  0.00  0.00    +0.030 A 
ATOM     30  C   UNL A   1     -14.943 204.324 120.954  0.00  0.00    +0.105 A 
ATOM     31  C   UNL A   1     -14.380 204.088 119.700  0.00  0.00    +0.030 A 
ATOM     32  C   UNL A   1     -13.884 205.165 118.961  0.00  0.00    +0.026 A 
BRANCH  30  33
ATOM     33  S   UNL A   1     -15.620 202.976 121.871  0.00  0.00    +0.056 S 
ATOM     34  O   UNL A   1     -16.549 202.246 121.037  0.00  0.00    -0.153 OA
ATOM     35  O   UNL A   1     -14.569 202.326 122.619  0.00  0.00    -0.153 OA
BRANCH  33  36
ATOM     36  N   UNL A   1     -16.552 203.804 122.992  0.00  0.00    -0.203 NA
ATOM     37  H   UNL A   1     -17.541 203.593 122.867  0.00  0.00    +0.144 HD
ATOM     38  H   UNL A   1     -16.192 203.660 123.934  0.00  0.00    +0.144 HD
ENDBRANCH  33  36
ENDBRANCH  30  33
ENDBRANCH  25  27
ENDBRANCH   4  25
TORSDOF 8
ENDMDL
