MODEL 1
REMARK minimizedAffinity -7.676682
REMARK minimizedRMSD -1
REMARK  Name = *****
REMARK  10 active torsions:
REMARK  status: ('A' for Active; 'I' for Inactive)
REMARK    1  A    between atoms: C_1  and  N_2
REMARK    2  A    between atoms: C_3  and  S_4
REMARK    3  A    between atoms: S_4  and  C_5
REMARK    4  A    between atoms: C_5  and  C_6
REMARK    5  A    between atoms: N_8  and  C_9
REMARK    6  A    between atoms: C_13  and  O_14
REMARK    7  A    between atoms: O_14  and  C_15
REMARK    8  A    between atoms: C_17  and  O_18
REMARK    9  A    between atoms: O_18  and  C_19
REMARK   10  A    between atoms: C_22  and  C_23
REMARK                            x       y       z     vdW  Elec       q    Type
REMARK                         _______ _______ _______ _____ _____    ______ ____
ROOT
ATOM      1  C   UNL A   1     -10.066 207.475 117.377  0.00  0.00    +0.228 C 
ATOM      2  O   UNL A   1      -9.471 206.397 117.435  0.00  0.00    -0.275 OA
ATOM      3  N   UNL A   1     -10.043 208.323 116.277  0.00  0.00    -0.282 N 
ATOM      4  H   UNL A   1     -10.307 209.286 116.442  0.00  0.00    +0.155 HD
ENDROOT
BRANCH   3   5
ATOM      5  C   UNL A   1      -9.285 208.048 115.116  0.00  0.00    +0.077 A 
ATOM      6  C   UNL A   1      -9.955 207.608 113.963  0.00  0.00    +0.050 A 
ATOM      7  C   UNL A   1      -9.282 207.385 112.750  0.00  0.00    +0.085 A 
ATOM      8 CL   UNL A   1     -10.306 206.948 111.424  0.00  0.00    -0.080 Cl
ATOM      9  C   UNL A   1      -7.898 207.563 112.685  0.00  0.00    +0.142 A 
ATOM     10  C   UNL A   1      -7.237 208.018 113.841  0.00  0.00    +0.094 A 
ATOM     11  C   UNL A   1      -7.911 208.282 115.043  0.00  0.00    +0.145 A 
BRANCH   9  12
ATOM     12  O   UNL A   1      -7.022 207.381 111.651  0.00  0.00    -0.493 OA
ATOM     13  C   UNL A   1      -5.698 206.940 111.893  0.00  0.00    +0.277 C 
ENDBRANCH   9  12
BRANCH  11  14
ATOM     14  O   UNL A   1      -7.104 208.784 116.030  0.00  0.00    -0.493 OA
ATOM     15  C   UNL A   1      -6.098 209.712 115.640  0.00  0.00    +0.277 C 
ENDBRANCH  11  14
ENDBRANCH   3   5
BRANCH   1  16
ATOM     16  C   UNL A   1     -10.909 207.963 118.544  0.00  0.00    +0.173 C 
BRANCH  16  17
ATOM     17  S   UNL A   1     -12.419 206.969 118.688  0.00  0.00    -0.077 S 
BRANCH  17  20
ATOM     18  C   UNL A   1     -12.356 204.505 116.613  0.00  0.00    +0.153 C 
ATOM     19  N   UNL A   1     -12.950 205.775 116.282  0.00  0.00    -0.305 N 
ATOM     20  C   UNL A   1     -12.958 206.910 117.047  0.00  0.00    +0.192 A 
ATOM     21  N   UNL A   1     -13.456 207.907 116.362  0.00  0.00    -0.122 NA
ATOM     22  N   UNL A   1     -13.803 207.419 115.122  0.00  0.00    -0.128 NA
ATOM     23  C   UNL A   1     -13.532 206.124 115.075  0.00  0.00    +0.165 A 
BRANCH  23  24
ATOM     24  C   UNL A   1     -13.758 205.256 113.907  0.00  0.00    +0.019 A 
ATOM     25  C   UNL A   1     -14.689 204.212 113.998  0.00  0.00    +0.012 A 
ATOM     26  C   UNL A   1     -14.957 203.386 112.900  0.00  0.00    +0.001 A 
ATOM     27  C   UNL A   1     -14.296 203.595 111.692  0.00  0.00    +0.000 A 
ATOM     28  C   UNL A   1     -13.343 204.605 111.593  0.00  0.00    +0.001 A 
ATOM     29  C   UNL A   1     -13.064 205.414 112.699  0.00  0.00    +0.012 A 
ENDBRANCH  23  24
ENDBRANCH  17  20
ENDBRANCH  16  17
ENDBRANCH   1  16
TORSDOF 7
ENDMDL
MODEL 2
REMARK minimizedAffinity -7.57463741
REMARK minimizedRMSD -1
REMARK  Name = *****
REMARK  10 active torsions:
REMARK  status: ('A' for Active; 'I' for Inactive)
REMARK    1  A    between atoms: C_1  and  N_2
REMARK    2  A    between atoms: C_3  and  S_4
REMARK    3  A    between atoms: S_4  and  C_5
REMARK    4  A    between atoms: C_5  and  C_6
REMARK    5  A    between atoms: N_8  and  C_9
REMARK    6  A    between atoms: C_13  and  O_14
REMARK    7  A    between atoms: O_14  and  C_15
REMARK    8  A    between atoms: C_17  and  O_18
REMARK    9  A    between atoms: O_18  and  C_19
REMARK   10  A    between atoms: C_22  and  C_23
REMARK                            x       y       z     vdW  Elec       q    Type
REMARK                         _______ _______ _______ _____ _____    ______ ____
ROOT
ATOM      1  C   UNL A   1     -14.548 204.864 116.790  0.00  0.00    +0.228 C 
ATOM      2  O   UNL A   1     -14.370 206.083 116.805  0.00  0.00    -0.275 OA
ATOM      3  N   UNL A   1     -14.374 204.062 115.668  0.00  0.00    -0.282 N 
ATOM      4  H   UNL A   1     -14.823 203.155 115.686  0.00  0.00    +0.155 HD
ENDROOT
BRANCH   3   5
ATOM      5  C   UNL A   1     -14.016 204.584 114.404  0.00  0.00    +0.077 A 
ATOM      6  C   UNL A   1     -15.038 204.962 113.518  0.00  0.00    +0.050 A 
ATOM      7  C   UNL A   1     -14.762 205.556 112.275  0.00  0.00    +0.085 A 
ATOM      8 CL   UNL A   1     -16.162 206.042 111.380  0.00  0.00    -0.080 Cl
ATOM      9  C   UNL A   1     -13.437 205.745 111.878  0.00  0.00    +0.142 A 
ATOM     10  C   UNL A   1     -12.420 205.377 112.778  0.00  0.00    +0.094 A 
ATOM     11  C   UNL A   1     -12.690 204.821 114.038  0.00  0.00    +0.145 A 
BRANCH   9  12
ATOM     12  O   UNL A   1     -12.915 206.260 110.723  0.00  0.00    -0.493 OA
ATOM     13  C   UNL A   1     -11.532 206.551 110.621  0.00  0.00    +0.277 C 
ENDBRANCH   9  12
BRANCH  11  14
ATOM     14  O   UNL A   1     -11.570 204.597 114.795  0.00  0.00    -0.493 OA
ATOM     15  C   UNL A   1     -10.421 205.385 114.507  0.00  0.00    +0.277 C 
ENDBRANCH  11  14
ENDBRANCH   3   5
BRANCH   1  16
ATOM     16  C   UNL A   1     -14.971 204.122 118.047  0.00  0.00    +0.173 C 
BRANCH  16  17
ATOM     17  S   UNL A   1     -15.330 202.385 117.661  0.00  0.00    -0.077 S 
BRANCH  17  20
ATOM     18  C   UNL A   1     -16.725 202.448 120.565  0.00  0.00    +0.153 C 
ATOM     19  N   UNL A   1     -17.488 202.392 119.345  0.00  0.00    -0.305 N 
ATOM     20  C   UNL A   1     -17.005 202.275 118.070  0.00  0.00    +0.192 A 
ATOM     21  N   UNL A   1     -17.995 202.104 117.231  0.00  0.00    -0.122 NA
ATOM     22  N   UNL A   1     -19.161 202.125 117.963  0.00  0.00    -0.128 NA
ATOM     23  C   UNL A   1     -18.867 202.332 119.237  0.00  0.00    +0.165 A 
BRANCH  23  24
ATOM     24  C   UNL A   1     -19.854 202.410 120.328  0.00  0.00    +0.019 A 
ATOM     25  C   UNL A   1     -20.379 203.658 120.691  0.00  0.00    +0.012 A 
ATOM     26  C   UNL A   1     -21.343 203.771 121.700  0.00  0.00    +0.001 A 
ATOM     27  C   UNL A   1     -21.797 202.633 122.360  0.00  0.00    +0.000 A 
ATOM     28  C   UNL A   1     -21.263 201.389 122.038  0.00  0.00    +0.001 A 
ATOM     29  C   UNL A   1     -20.285 201.284 121.043  0.00  0.00    +0.012 A 
ENDBRANCH  23  24
ENDBRANCH  17  20
ENDBRANCH  16  17
ENDBRANCH   1  16
TORSDOF 7
ENDMDL
MODEL 3
REMARK minimizedAffinity -7.41503143
REMARK minimizedRMSD -1
REMARK  Name = *****
REMARK  10 active torsions:
REMARK  status: ('A' for Active; 'I' for Inactive)
REMARK    1  A    between atoms: C_1  and  N_2
REMARK    2  A    between atoms: C_3  and  S_4
REMARK    3  A    between atoms: S_4  and  C_5
REMARK    4  A    between atoms: C_5  and  C_6
REMARK    5  A    between atoms: N_8  and  C_9
REMARK    6  A    between atoms: C_13  and  O_14
REMARK    7  A    between atoms: O_14  and  C_15
REMARK    8  A    between atoms: C_17  and  O_18
REMARK    9  A    between atoms: O_18  and  C_19
REMARK   10  A    between atoms: C_22  and  C_23
REMARK                            x       y       z     vdW  Elec       q    Type
REMARK                         _______ _______ _______ _____ _____    ______ ____
ROOT
ATOM      1  C   UNL A   1     -10.967 205.700 117.276  0.00  0.00    +0.228 C 
ATOM      2  O   UNL A   1     -10.798 204.580 116.789  0.00  0.00    -0.275 OA
ATOM      3  N   UNL A   1     -10.555 206.883 116.675  0.00  0.00    -0.282 N 
ATOM      4  H   UNL A   1     -10.473 207.692 117.278  0.00  0.00    +0.155 HD
ENDROOT
BRANCH   3   5
ATOM      5  C   UNL A   1      -9.851 206.913 115.450  0.00  0.00    +0.077 A 
ATOM      6  C   UNL A   1     -10.583 206.873 114.252  0.00  0.00    +0.050 A 
ATOM      7  C   UNL A   1      -9.962 206.973 112.996  0.00  0.00    +0.085 A 
ATOM      8 CL   UNL A   1     -11.050 207.007 111.651  0.00  0.00    -0.080 Cl
ATOM      9  C   UNL A   1      -8.571 207.075 112.920  0.00  0.00    +0.142 A 
ATOM     10  C   UNL A   1      -7.847 207.130 114.125  0.00  0.00    +0.094 A 
ATOM     11  C   UNL A   1      -8.466 207.072 115.383  0.00  0.00    +0.145 A 
BRANCH   9  12
ATOM     12  O   UNL A   1      -7.739 207.150 111.836  0.00  0.00    -0.493 OA
ATOM     13  C   UNL A   1      -6.339 206.998 111.988  0.00  0.00    +0.277 C 
ENDBRANCH   9  12
BRANCH  11  14
ATOM     14  O   UNL A   1      -7.598 207.213 116.433  0.00  0.00    -0.493 OA
ATOM     15  C   UNL A   1      -6.629 208.251 116.343  0.00  0.00    +0.277 C 
ENDBRANCH  11  14
ENDBRANCH   3   5
BRANCH   1  16
ATOM     16  C   UNL A   1     -11.674 205.872 118.610  0.00  0.00    +0.173 C 
BRANCH  16  17
ATOM     17  S   UNL A   1     -13.150 206.909 118.409  0.00  0.00    -0.077 S 
BRANCH  17  20
ATOM     18  C   UNL A   1     -13.831 208.080 115.486  0.00  0.00    +0.153 C 
ATOM     19  N   UNL A   1     -14.107 206.715 115.851  0.00  0.00    -0.305 N 
ATOM     20  C   UNL A   1     -13.941 206.137 117.081  0.00  0.00    +0.192 A 
ATOM     21  N   UNL A   1     -14.436 204.926 117.075  0.00  0.00    -0.122 NA
ATOM     22  N   UNL A   1     -14.926 204.689 115.810  0.00  0.00    -0.128 NA
ATOM     23  C   UNL A   1     -14.701 205.752 115.054  0.00  0.00    +0.165 A 
BRANCH  23  24
ATOM     24  C   UNL A   1     -15.091 205.878 113.639  0.00  0.00    +0.019 A 
ATOM     25  C   UNL A   1     -16.397 206.275 113.320  0.00  0.00    +0.012 A 
ATOM     26  C   UNL A   1     -16.796 206.438 111.988  0.00  0.00    +0.001 A 
ATOM     27  C   UNL A   1     -15.893 206.207 110.955  0.00  0.00    +0.000 A 
ATOM     28  C   UNL A   1     -14.602 205.779 111.251  0.00  0.00    +0.001 A 
ATOM     29  C   UNL A   1     -14.213 205.598 112.583  0.00  0.00    +0.012 A 
ENDBRANCH  23  24
ENDBRANCH  17  20
ENDBRANCH  16  17
ENDBRANCH   1  16
TORSDOF 7
ENDMDL
MODEL 4
REMARK minimizedAffinity -7.2841177
REMARK minimizedRMSD -1
REMARK  Name = *****
REMARK  10 active torsions:
REMARK  status: ('A' for Active; 'I' for Inactive)
REMARK    1  A    between atoms: C_1  and  N_2
REMARK    2  A    between atoms: C_3  and  S_4
REMARK    3  A    between atoms: S_4  and  C_5
REMARK    4  A    between atoms: C_5  and  C_6
REMARK    5  A    between atoms: N_8  and  C_9
REMARK    6  A    between atoms: C_13  and  O_14
REMARK    7  A    between atoms: O_14  and  C_15
REMARK    8  A    between atoms: C_17  and  O_18
REMARK    9  A    between atoms: O_18  and  C_19
REMARK   10  A    between atoms: C_22  and  C_23
REMARK                            x       y       z     vdW  Elec       q    Type
REMARK                         _______ _______ _______ _____ _____    ______ ____
ROOT
ATOM      1  C   UNL A   1     -13.771 204.275 116.787  0.00  0.00    +0.228 C 
ATOM      2  O   UNL A   1     -12.679 203.712 116.875  0.00  0.00    -0.275 OA
ATOM      3  N   UNL A   1     -14.088 205.220 115.818  0.00  0.00    -0.282 N 
ATOM      4  H   UNL A   1     -14.879 205.820 116.013  0.00  0.00    +0.155 HD
ENDROOT
BRANCH   3   5
ATOM      5  C   UNL A   1     -13.156 205.666 114.852  0.00  0.00    +0.077 A 
ATOM      6  C   UNL A   1     -12.207 206.630 115.228  0.00  0.00    +0.050 A 
ATOM      7  C   UNL A   1     -11.204 207.069 114.348  0.00  0.00    +0.085 A 
ATOM      8 CL   UNL A   1     -10.072 208.181 115.039  0.00  0.00    -0.080 Cl
ATOM      9  C   UNL A   1     -11.162 206.570 113.044  0.00  0.00    +0.142 A 
ATOM     10  C   UNL A   1     -12.107 205.593 112.681  0.00  0.00    +0.094 A 
ATOM     11  C   UNL A   1     -13.086 205.121 113.569  0.00  0.00    +0.145 A 
BRANCH   9  12
ATOM     12  O   UNL A   1     -10.321 206.858 112.005  0.00  0.00    -0.493 OA
ATOM     13  C   UNL A   1     -10.743 206.683 110.663  0.00  0.00    +0.277 C 
ENDBRANCH   9  12
BRANCH  11  14
ATOM     14  O   UNL A   1     -13.866 204.121 113.051  0.00  0.00    -0.493 OA
ATOM     15  C   UNL A   1     -14.147 204.171 111.657  0.00  0.00    +0.277 C 
ENDBRANCH  11  14
ENDBRANCH   3   5
BRANCH   1  16
ATOM     16  C   UNL A   1     -14.895 203.955 117.759  0.00  0.00    +0.173 C 
BRANCH  16  17
ATOM     17  S   UNL A   1     -15.227 202.172 117.771  0.00  0.00    -0.077 S 
BRANCH  17  20
ATOM     18  C   UNL A   1     -16.686 202.447 120.630  0.00  0.00    +0.153 C 
ATOM     19  N   UNL A   1     -17.423 202.339 119.398  0.00  0.00    -0.305 N 
ATOM     20  C   UNL A   1     -16.914 202.133 118.145  0.00  0.00    +0.192 A 
ATOM     21  N   UNL A   1     -17.888 201.939 117.293  0.00  0.00    -0.122 NA
ATOM     22  N   UNL A   1     -19.070 202.036 117.993  0.00  0.00    -0.128 NA
ATOM     23  C   UNL A   1     -18.800 202.312 119.260  0.00  0.00    +0.165 A 
BRANCH  23  24
ATOM     24  C   UNL A   1     -19.809 202.483 120.319  0.00  0.00    +0.019 A 
ATOM     25  C   UNL A   1     -20.268 201.357 121.017  0.00  0.00    +0.012 A 
ATOM     26  C   UNL A   1     -21.202 201.481 122.053  0.00  0.00    +0.001 A 
ATOM     27  C   UNL A   1     -21.689 202.736 122.406  0.00  0.00    +0.000 A 
ATOM     28  C   UNL A   1     -21.271 203.861 121.702  0.00  0.00    +0.001 A 
ATOM     29  C   UNL A   1     -20.353 203.730 120.654  0.00  0.00    +0.012 A 
ENDBRANCH  23  24
ENDBRANCH  17  20
ENDBRANCH  16  17
ENDBRANCH   1  16
TORSDOF 7
ENDMDL
MODEL 5
REMARK minimizedAffinity -7.01170301
REMARK minimizedRMSD -1
REMARK  Name = *****
REMARK  10 active torsions:
REMARK  status: ('A' for Active; 'I' for Inactive)
REMARK    1  A    between atoms: C_1  and  N_2
REMARK    2  A    between atoms: C_3  and  S_4
REMARK    3  A    between atoms: S_4  and  C_5
REMARK    4  A    between atoms: C_5  and  C_6
REMARK    5  A    between atoms: N_8  and  C_9
REMARK    6  A    between atoms: C_13  and  O_14
REMARK    7  A    between atoms: O_14  and  C_15
REMARK    8  A    between atoms: C_17  and  O_18
REMARK    9  A    between atoms: O_18  and  C_19
REMARK   10  A    between atoms: C_22  and  C_23
REMARK                            x       y       z     vdW  Elec       q    Type
REMARK                         _______ _______ _______ _____ _____    ______ ____
ROOT
ATOM      1  C   UNL A   1     -13.417 205.738 119.078  0.00  0.00    +0.228 C 
ATOM      2  O   UNL A   1     -14.409 206.457 118.951  0.00  0.00    -0.275 OA
ATOM      3  N   UNL A   1     -13.457 204.349 119.113  0.00  0.00    -0.282 N 
ATOM      4  H   UNL A   1     -12.652 203.883 119.511  0.00  0.00    +0.155 HD
ENDROOT
BRANCH   3   5
ATOM      5  C   UNL A   1     -14.665 203.618 119.051  0.00  0.00    +0.077 A 
ATOM      6  C   UNL A   1     -15.254 203.188 120.251  0.00  0.00    +0.050 A 
ATOM      7  C   UNL A   1     -16.490 202.520 120.276  0.00  0.00    +0.085 A 
ATOM      8 CL   UNL A   1     -17.091 202.169 121.861  0.00  0.00    -0.080 Cl
ATOM      9  C   UNL A   1     -17.145 202.234 119.076  0.00  0.00    +0.142 A 
ATOM     10  C   UNL A   1     -16.555 202.681 117.880  0.00  0.00    +0.094 A 
ATOM     11  C   UNL A   1     -15.341 203.385 117.852  0.00  0.00    +0.145 A 
BRANCH   9  12
ATOM     12  O   UNL A   1     -18.320 201.577 118.835  0.00  0.00    -0.493 OA
ATOM     13  C   UNL A   1     -19.378 202.217 118.143  0.00  0.00    +0.277 C 
ENDBRANCH   9  12
BRANCH  11  14
ATOM     14  O   UNL A   1     -14.969 203.795 116.599  0.00  0.00    -0.493 OA
ATOM     15  C   UNL A   1     -15.684 204.887 116.032  0.00  0.00    +0.277 C 
ENDBRANCH  11  14
ENDBRANCH   3   5
BRANCH   1  16
ATOM     16  C   UNL A   1     -12.027 206.340 119.197  0.00  0.00    +0.173 C 
BRANCH  16  17
ATOM     17  S   UNL A   1     -11.013 205.869 117.767  0.00  0.00    -0.077 S 
BRANCH  17  20
ATOM     18  C   UNL A   1     -11.799 204.617 114.905  0.00  0.00    +0.153 C 
ATOM     19  N   UNL A   1     -12.232 205.926 115.316  0.00  0.00    -0.305 N 
ATOM     20  C   UNL A   1     -11.891 206.589 116.464  0.00  0.00    +0.192 A 
ATOM     21  N   UNL A   1     -12.353 207.813 116.428  0.00  0.00    -0.122 NA
ATOM     22  N   UNL A   1     -13.030 207.960 115.239  0.00  0.00    -0.128 NA
ATOM     23  C   UNL A   1     -12.992 206.815 114.575  0.00  0.00    +0.165 A 
BRANCH  23  24
ATOM     24  C   UNL A   1     -13.602 206.585 113.254  0.00  0.00    +0.019 A 
ATOM     25  C   UNL A   1     -12.778 206.278 112.162  0.00  0.00    +0.012 A 
ATOM     26  C   UNL A   1     -13.320 206.020 110.898  0.00  0.00    +0.001 A 
ATOM     27  C   UNL A   1     -14.699 206.066 110.708  0.00  0.00    +0.000 A 
ATOM     28  C   UNL A   1     -15.530 206.403 111.771  0.00  0.00    +0.001 A 
ATOM     29  C   UNL A   1     -14.982 206.680 113.028  0.00  0.00    +0.012 A 
ENDBRANCH  23  24
ENDBRANCH  17  20
ENDBRANCH  16  17
ENDBRANCH   1  16
TORSDOF 7
ENDMDL
MODEL 6
REMARK minimizedAffinity -7.0115757
REMARK minimizedRMSD -1
REMARK  Name = *****
REMARK  10 active torsions:
REMARK  status: ('A' for Active; 'I' for Inactive)
REMARK    1  A    between atoms: C_1  and  N_2
REMARK    2  A    between atoms: C_3  and  S_4
REMARK    3  A    between atoms: S_4  and  C_5
REMARK    4  A    between atoms: C_5  and  C_6
REMARK    5  A    between atoms: N_8  and  C_9
REMARK    6  A    between atoms: C_13  and  O_14
REMARK    7  A    between atoms: O_14  and  C_15
REMARK    8  A    between atoms: C_17  and  O_18
REMARK    9  A    between atoms: O_18  and  C_19
REMARK   10  A    between atoms: C_22  and  C_23
REMARK                            x       y       z     vdW  Elec       q    Type
REMARK                         _______ _______ _______ _____ _____    ______ ____
ROOT
ATOM      1  C   UNL A   1     -13.847 204.015 116.900  0.00  0.00    +0.228 C 
ATOM      2  O   UNL A   1     -12.730 203.496 116.868  0.00  0.00    -0.275 OA
ATOM      3  N   UNL A   1     -14.310 204.933 115.964  0.00  0.00    -0.282 N 
ATOM      4  H   UNL A   1     -15.097 205.505 116.243  0.00  0.00    +0.155 HD
ENDROOT
BRANCH   3   5
ATOM      5  C   UNL A   1     -13.514 205.400 114.894  0.00  0.00    +0.077 A 
ATOM      6  C   UNL A   1     -13.923 205.123 113.580  0.00  0.00    +0.050 A 
ATOM      7  C   UNL A   1     -13.226 205.616 112.464  0.00  0.00    +0.085 A 
ATOM      8 CL   UNL A   1     -13.953 205.249 110.937  0.00  0.00    -0.080 Cl
ATOM      9  C   UNL A   1     -12.067 206.372 112.652  0.00  0.00    +0.142 A 
ATOM     10  C   UNL A   1     -11.672 206.657 113.973  0.00  0.00    +0.094 A 
ATOM     11  C   UNL A   1     -12.388 206.202 115.091  0.00  0.00    +0.145 A 
BRANCH   9  12
ATOM     12  O   UNL A   1     -11.205 206.927 111.746  0.00  0.00    -0.493 OA
ATOM     13  C   UNL A   1     -10.236 207.875 112.156  0.00  0.00    +0.277 C 
ENDBRANCH   9  12
BRANCH  11  14
ATOM     14  O   UNL A   1     -11.886 206.644 116.286  0.00  0.00    -0.493 OA
ATOM     15  C   UNL A   1     -11.389 207.976 116.331  0.00  0.00    +0.277 C 
ENDBRANCH  11  14
ENDBRANCH   3   5
BRANCH   1  16
ATOM     16  C   UNL A   1     -14.839 203.666 117.997  0.00  0.00    +0.173 C 
BRANCH  16  17
ATOM     17  S   UNL A   1     -15.287 201.910 117.905  0.00  0.00    -0.077 S 
BRANCH  17  20
ATOM     18  C   UNL A   1     -16.786 202.170 120.745  0.00  0.00    +0.153 C 
ATOM     19  N   UNL A   1     -17.502 202.155 119.496  0.00  0.00    -0.305 N 
ATOM     20  C   UNL A   1     -16.981 201.963 118.245  0.00  0.00    +0.192 A 
ATOM     21  N   UNL A   1     -17.948 201.863 117.369  0.00  0.00    -0.122 NA
ATOM     22  N   UNL A   1     -19.135 202.008 118.051  0.00  0.00    -0.128 NA
ATOM     23  C   UNL A   1     -18.875 202.219 119.332  0.00  0.00    +0.165 A 
BRANCH  23  24
ATOM     24  C   UNL A   1     -19.893 202.413 120.379  0.00  0.00    +0.019 A 
ATOM     25  C   UNL A   1     -20.386 201.298 121.071  0.00  0.00    +0.012 A 
ATOM     26  C   UNL A   1     -21.329 201.444 122.095  0.00  0.00    +0.001 A 
ATOM     27  C   UNL A   1     -21.793 202.710 122.442  0.00  0.00    +0.000 A 
ATOM     28  C   UNL A   1     -21.341 203.825 121.742  0.00  0.00    +0.001 A 
ATOM     29  C   UNL A   1     -20.414 203.672 120.706  0.00  0.00    +0.012 A 
ENDBRANCH  23  24
ENDBRANCH  17  20
ENDBRANCH  16  17
ENDBRANCH   1  16
TORSDOF 7
ENDMDL
MODEL 7
REMARK minimizedAffinity -6.96428967
REMARK minimizedRMSD -1
REMARK  Name = *****
REMARK  10 active torsions:
REMARK  status: ('A' for Active; 'I' for Inactive)
REMARK    1  A    between atoms: C_1  and  N_2
REMARK    2  A    between atoms: C_3  and  S_4
REMARK    3  A    between atoms: S_4  and  C_5
REMARK    4  A    between atoms: C_5  and  C_6
REMARK    5  A    between atoms: N_8  and  C_9
REMARK    6  A    between atoms: C_13  and  O_14
REMARK    7  A    between atoms: O_14  and  C_15
REMARK    8  A    between atoms: C_17  and  O_18
REMARK    9  A    between atoms: O_18  and  C_19
REMARK   10  A    between atoms: C_22  and  C_23
REMARK                            x       y       z     vdW  Elec       q    Type
REMARK                         _______ _______ _______ _____ _____    ______ ____
ROOT
ATOM      1  C   UNL A   1     -11.535 205.407 118.433  0.00  0.00    +0.228 C 
ATOM      2  O   UNL A   1     -10.939 204.407 118.026  0.00  0.00    -0.275 OA
ATOM      3  N   UNL A   1     -11.290 206.699 117.986  0.00  0.00    -0.282 N 
ATOM      4  H   UNL A   1     -11.609 207.453 118.582  0.00  0.00    +0.155 HD
ENDROOT
BRANCH   3   5
ATOM      5  C   UNL A   1     -10.286 207.003 117.038  0.00  0.00    +0.077 A 
ATOM      6  C   UNL A   1      -9.019 207.392 117.501  0.00  0.00    +0.050 A 
ATOM      7  C   UNL A   1      -7.950 207.639 116.624  0.00  0.00    +0.085 A 
ATOM      8 CL   UNL A   1      -6.447 208.005 117.400  0.00  0.00    -0.080 Cl
ATOM      9  C   UNL A   1      -8.149 207.536 115.245  0.00  0.00    +0.142 A 
ATOM     10  C   UNL A   1      -9.418 207.131 114.791  0.00  0.00    +0.094 A 
ATOM     11  C   UNL A   1     -10.478 206.843 115.664  0.00  0.00    +0.145 A 
BRANCH   9  12
ATOM     12  O   UNL A   1      -7.294 207.755 114.200  0.00  0.00    -0.493 OA
ATOM     13  C   UNL A   1      -7.314 206.912 113.061  0.00  0.00    +0.277 C 
ENDBRANCH   9  12
BRANCH  11  14
ATOM     14  O   UNL A   1     -11.608 206.397 115.033  0.00  0.00    -0.493 OA
ATOM     15  C   UNL A   1     -11.585 205.072 114.514  0.00  0.00    +0.277 C 
ENDBRANCH  11  14
ENDBRANCH   3   5
BRANCH   1  16
ATOM     16  C   UNL A   1     -12.628 205.290 119.482  0.00  0.00    +0.173 C 
BRANCH  16  17
ATOM     17  S   UNL A   1     -14.087 204.469 118.782  0.00  0.00    -0.077 S 
BRANCH  17  20
ATOM     18  C   UNL A   1     -14.804 203.652 115.749  0.00  0.00    +0.153 C 
ATOM     19  N   UNL A   1     -14.814 205.019 116.200  0.00  0.00    -0.305 N 
ATOM     20  C   UNL A   1     -14.446 205.487 117.432  0.00  0.00    +0.192 A 
ATOM     21  N   UNL A   1     -14.443 206.796 117.430  0.00  0.00    -0.122 NA
ATOM     22  N   UNL A   1     -14.834 207.205 116.175  0.00  0.00    -0.128 NA
ATOM     23  C   UNL A   1     -15.093 206.138 115.435  0.00  0.00    +0.165 A 
BRANCH  23  24
ATOM     24  C   UNL A   1     -15.532 206.174 114.029  0.00  0.00    +0.019 A 
ATOM     25  C   UNL A   1     -16.855 205.837 113.714  0.00  0.00    +0.012 A 
ATOM     26  C   UNL A   1     -17.320 205.890 112.395  0.00  0.00    +0.001 A 
ATOM     27  C   UNL A   1     -16.464 206.284 111.369  0.00  0.00    +0.000 A 
ATOM     28  C   UNL A   1     -15.137 206.589 111.658  0.00  0.00    +0.001 A 
ATOM     29  C   UNL A   1     -14.672 206.514 112.975  0.00  0.00    +0.012 A 
ENDBRANCH  23  24
ENDBRANCH  17  20
ENDBRANCH  16  17
ENDBRANCH   1  16
TORSDOF 7
ENDMDL
MODEL 8
REMARK minimizedAffinity -6.864779
REMARK minimizedRMSD -1
REMARK  Name = *****
REMARK  10 active torsions:
REMARK  status: ('A' for Active; 'I' for Inactive)
REMARK    1  A    between atoms: C_1  and  N_2
REMARK    2  A    between atoms: C_3  and  S_4
REMARK    3  A    between atoms: S_4  and  C_5
REMARK    4  A    between atoms: C_5  and  C_6
REMARK    5  A    between atoms: N_8  and  C_9
REMARK    6  A    between atoms: C_13  and  O_14
REMARK    7  A    between atoms: O_14  and  C_15
REMARK    8  A    between atoms: C_17  and  O_18
REMARK    9  A    between atoms: O_18  and  C_19
REMARK   10  A    between atoms: C_22  and  C_23
REMARK                            x       y       z     vdW  Elec       q    Type
REMARK                         _______ _______ _______ _____ _____    ______ ____
ROOT
ATOM      1  C   UNL A   1     -13.386 204.978 119.367  0.00  0.00    +0.228 C 
ATOM      2  O   UNL A   1     -14.139 205.861 118.952  0.00  0.00    -0.275 OA
ATOM      3  N   UNL A   1     -13.816 203.756 119.869  0.00  0.00    -0.282 N 
ATOM      4  H   UNL A   1     -13.156 203.245 120.443  0.00  0.00    +0.155 HD
ENDROOT
BRANCH   3   5
ATOM      5  C   UNL A   1     -15.183 203.419 119.996  0.00  0.00    +0.077 A 
ATOM      6  C   UNL A   1     -15.851 203.756 121.184  0.00  0.00    +0.050 A 
ATOM      7  C   UNL A   1     -17.225 203.521 121.357  0.00  0.00    +0.085 A 
ATOM      8 CL   UNL A   1     -17.877 204.104 122.851  0.00  0.00    -0.080 Cl
ATOM      9  C   UNL A   1     -17.953 202.899 120.340  0.00  0.00    +0.142 A 
ATOM     10  C   UNL A   1     -17.279 202.579 119.148  0.00  0.00    +0.094 A 
ATOM     11  C   UNL A   1     -15.915 202.848 118.954  0.00  0.00    +0.145 A 
BRANCH   9  12
ATOM     12  O   UNL A   1     -19.270 202.536 120.279  0.00  0.00    -0.493 OA
ATOM     13  C   UNL A   1     -19.888 202.263 119.033  0.00  0.00    +0.277 C 
ENDBRANCH   9  12
BRANCH  11  14
ATOM     14  O   UNL A   1     -15.461 202.528 117.702  0.00  0.00    -0.493 OA
ATOM     15  C   UNL A   1     -14.966 201.208 117.507  0.00  0.00    +0.277 C 
ENDBRANCH  11  14
ENDBRANCH   3   5
BRANCH   1  16
ATOM     16  C   UNL A   1     -11.878 205.166 119.347  0.00  0.00    +0.173 C 
BRANCH  16  17
ATOM     17  S   UNL A   1     -11.429 206.522 118.228  0.00  0.00    -0.077 S 
BRANCH  17  20
ATOM     18  C   UNL A   1     -13.579 206.959 115.869  0.00  0.00    +0.153 C 
ATOM     19  N   UNL A   1     -12.451 206.077 115.727  0.00  0.00    -0.305 N 
ATOM     20  C   UNL A   1     -11.529 205.750 116.685  0.00  0.00    +0.192 A 
ATOM     21  N   UNL A   1     -10.738 204.807 116.241  0.00  0.00    -0.122 NA
ATOM     22  N   UNL A   1     -11.131 204.513 114.955  0.00  0.00    -0.128 NA
ATOM     23  C   UNL A   1     -12.144 205.299 114.623  0.00  0.00    +0.165 A 
BRANCH  23  24
ATOM     24  C   UNL A   1     -12.841 205.274 113.326  0.00  0.00    +0.019 A 
ATOM     25  C   UNL A   1     -13.890 204.365 113.128  0.00  0.00    +0.012 A 
ATOM     26  C   UNL A   1     -14.599 204.332 111.922  0.00  0.00    +0.001 A 
ATOM     27  C   UNL A   1     -14.269 205.211 110.894  0.00  0.00    +0.000 A 
ATOM     28  C   UNL A   1     -13.209 206.098 111.059  0.00  0.00    +0.001 A 
ATOM     29  C   UNL A   1     -12.490 206.113 112.259  0.00  0.00    +0.012 A 
ENDBRANCH  23  24
ENDBRANCH  17  20
ENDBRANCH  16  17
ENDBRANCH   1  16
TORSDOF 7
ENDMDL
MODEL 9
REMARK minimizedAffinity -6.84078836
REMARK minimizedRMSD -1
REMARK  Name = *****
REMARK  10 active torsions:
REMARK  status: ('A' for Active; 'I' for Inactive)
REMARK    1  A    between atoms: C_1  and  N_2
REMARK    2  A    between atoms: C_3  and  S_4
REMARK    3  A    between atoms: S_4  and  C_5
REMARK    4  A    between atoms: C_5  and  C_6
REMARK    5  A    between atoms: N_8  and  C_9
REMARK    6  A    between atoms: C_13  and  O_14
REMARK    7  A    between atoms: O_14  and  C_15
REMARK    8  A    between atoms: C_17  and  O_18
REMARK    9  A    between atoms: O_18  and  C_19
REMARK   10  A    between atoms: C_22  and  C_23
REMARK                            x       y       z     vdW  Elec       q    Type
REMARK                         _______ _______ _______ _____ _____    ______ ____
ROOT
ATOM      1  C   UNL A   1     -14.194 204.400 117.186  0.00  0.00    +0.228 C 
ATOM      2  O   UNL A   1     -13.278 203.585 117.071  0.00  0.00    -0.275 OA
ATOM      3  N   UNL A   1     -14.021 205.721 117.582  0.00  0.00    -0.282 N 
ATOM      4  H   UNL A   1     -14.843 206.203 117.924  0.00  0.00    +0.155 HD
ENDROOT
BRANCH   3   5
ATOM      5  C   UNL A   1     -12.761 206.252 117.940  0.00  0.00    +0.077 A 
ATOM      6  C   UNL A   1     -11.992 206.886 116.951  0.00  0.00    +0.050 A 
ATOM      7  C   UNL A   1     -10.764 207.502 117.244  0.00  0.00    +0.085 A 
ATOM      8 CL   UNL A   1     -10.025 208.317 115.908  0.00  0.00    -0.080 Cl
ATOM      9  C   UNL A   1     -10.261 207.456 118.547  0.00  0.00    +0.142 A 
ATOM     10  C   UNL A   1     -11.045 206.831 119.534  0.00  0.00    +0.094 A 
ATOM     11  C   UNL A   1     -12.292 206.250 119.255  0.00  0.00    +0.145 A 
BRANCH   9  12
ATOM     12  O   UNL A   1      -9.095 207.941 119.072  0.00  0.00    -0.493 OA
ATOM     13  C   UNL A   1      -7.979 207.089 119.265  0.00  0.00    +0.277 C 
ENDBRANCH   9  12
BRANCH  11  14
ATOM     14  O   UNL A   1     -12.932 205.757 120.361  0.00  0.00    -0.493 OA
ATOM     15  C   UNL A   1     -12.127 205.428 121.487  0.00  0.00    +0.277 C 
ENDBRANCH  11  14
ENDBRANCH   3   5
BRANCH   1  16
ATOM     16  C   UNL A   1     -15.631 204.008 116.879  0.00  0.00    +0.173 C 
BRANCH  16  17
ATOM     17  S   UNL A   1     -16.315 205.086 115.589  0.00  0.00    -0.077 S 
BRANCH  17  20
ATOM     18  C   UNL A   1     -14.385 207.271 114.217  0.00  0.00    +0.153 C 
ATOM     19  N   UNL A   1     -14.340 205.876 113.865  0.00  0.00    -0.305 N 
ATOM     20  C   UNL A   1     -15.164 204.881 114.316  0.00  0.00    +0.192 A 
ATOM     21  N   UNL A   1     -14.922 203.771 113.666  0.00  0.00    -0.122 NA
ATOM     22  N   UNL A   1     -13.903 204.031 112.777  0.00  0.00    -0.128 NA
ATOM     23  C   UNL A   1     -13.522 205.291 112.913  0.00  0.00    +0.165 A 
BRANCH  23  24
ATOM     24  C   UNL A   1     -12.459 205.941 112.126  0.00  0.00    +0.019 A 
ATOM     25  C   UNL A   1     -11.248 206.271 112.749  0.00  0.00    +0.012 A 
ATOM     26  C   UNL A   1     -10.202 206.859 112.029  0.00  0.00    +0.001 A 
ATOM     27  C   UNL A   1     -10.353 207.124 110.670  0.00  0.00    +0.000 A 
ATOM     28  C   UNL A   1     -11.561 206.834 110.042  0.00  0.00    +0.001 A 
ATOM     29  C   UNL A   1     -12.611 206.265 110.771  0.00  0.00    +0.012 A 
ENDBRANCH  23  24
ENDBRANCH  17  20
ENDBRANCH  16  17
ENDBRANCH   1  16
TORSDOF 7
ENDMDL
