MODEL 1
REMARK minimizedAffinity -7.01809645
REMARK minimizedRMSD -1
REMARK  Name = *****
REMARK  7 active torsions:
REMARK  status: ('A' for Active; 'I' for Inactive)
REMARK    1  A    between atoms: N_1  and  C_2
REMARK    2  A    between atoms: C_6  and  S_7
REMARK    3  A    between atoms: S_7  and  C_8
REMARK    4  A    between atoms: C_8  and  C_9
REMARK    5  A    between atoms: N_11  and  C_12
REMARK    6  A    between atoms: C_15  and  O_18
REMARK    7  A    between atoms: O_18  and  C_19
REMARK                            x       y       z     vdW  Elec       q    Type
REMARK                         _______ _______ _______ _____ _____    ______ ____
ROOT
ATOM      1  C   UNL A   1     -13.487 205.257 114.433  0.00  0.00    +0.228 C 
ATOM      2  O   UNL A   1     -13.567 206.271 115.124  0.00  0.00    -0.275 OA
ATOM      3  N   UNL A   1     -12.483 204.967 113.518  0.00  0.00    -0.285 N 
ATOM      4  H   UNL A   1     -12.670 204.221 112.853  0.00  0.00    +0.155 HD
ENDROOT
BRANCH   3   5
ATOM      5  C   UNL A   1     -11.366 205.778 113.237  0.00  0.00    +0.034 A 
ATOM      6  C   UNL A   1     -11.288 206.603 112.115  0.00  0.00    +0.027 A 
ATOM      7  C   UNL A   1     -10.132 207.343 111.846  0.00  0.00    +0.047 A 
ATOM      8  C   UNL A   1      -9.038 207.272 112.703  0.00  0.00    +0.120 A 
ATOM      9  C   UNL A   1      -9.129 206.494 113.856  0.00  0.00    +0.047 A 
ATOM     10  C   UNL A   1     -10.291 205.757 114.133  0.00  0.00    +0.027 A 
BRANCH   8  11
ATOM     11  O   UNL A   1      -7.843 207.914 112.517  0.00  0.00    -0.495 OA
ATOM     12  C   UNL A   1      -6.783 207.135 111.978  0.00  0.00    +0.277 C 
ENDBRANCH   8  11
ENDBRANCH   3   5
BRANCH   1  13
ATOM     13  C   UNL A   1     -14.579 204.203 114.496  0.00  0.00    +0.173 C 
BRANCH  13  14
ATOM     14  S   UNL A   1     -15.092 203.726 112.817  0.00  0.00    -0.075 S 
BRANCH  14  20
ATOM     15  N   UNL A   1     -15.967 205.988 111.553  0.00  0.00    -0.223 N 
ATOM     16  C   UNL A   1     -14.815 206.232 110.731  0.00  0.00    +0.177 C 
ATOM     17  N   UNL A   1     -17.047 206.787 111.482  0.00  0.00    -0.043 NA
ATOM     18  N   UNL A   1     -17.924 206.265 112.330  0.00  0.00    -0.022 NA
ATOM     19  N   UNL A   1     -17.416 205.141 112.938  0.00  0.00    -0.102 NA
ATOM     20  C   UNL A   1     -16.206 204.988 112.448  0.00  0.00    +0.209 A 
ENDBRANCH  14  20
ENDBRANCH  13  14
ENDBRANCH   1  13
TORSDOF 5
ENDMDL
MODEL 2
REMARK minimizedAffinity -6.38770437
REMARK minimizedRMSD -1
REMARK  Name = *****
REMARK  7 active torsions:
REMARK  status: ('A' for Active; 'I' for Inactive)
REMARK    1  A    between atoms: N_1  and  C_2
REMARK    2  A    between atoms: C_6  and  S_7
REMARK    3  A    between atoms: S_7  and  C_8
REMARK    4  A    between atoms: C_8  and  C_9
REMARK    5  A    between atoms: N_11  and  C_12
REMARK    6  A    between atoms: C_15  and  O_18
REMARK    7  A    between atoms: O_18  and  C_19
REMARK                            x       y       z     vdW  Elec       q    Type
REMARK                         _______ _______ _______ _____ _____    ______ ____
ROOT
ATOM      1  C   UNL A   1     -11.691 205.747 114.001  0.00  0.00    +0.228 C 
ATOM      2  O   UNL A   1     -12.041 204.670 114.478  0.00  0.00    -0.275 OA
ATOM      3  N   UNL A   1     -12.503 206.640 113.313  0.00  0.00    -0.285 N 
ATOM      4  H   UNL A   1     -12.035 207.363 112.773  0.00  0.00    +0.155 HD
ENDROOT
BRANCH   3   5
ATOM      5  C   UNL A   1     -13.879 206.474 113.060  0.00  0.00    +0.034 A 
ATOM      6  C   UNL A   1     -14.387 206.152 111.802  0.00  0.00    +0.027 A 
ATOM      7  C   UNL A   1     -15.766 206.059 111.585  0.00  0.00    +0.047 A 
ATOM      8  C   UNL A   1     -16.656 206.281 112.632  0.00  0.00    +0.120 A 
ATOM      9  C   UNL A   1     -16.155 206.548 113.905  0.00  0.00    +0.047 A 
ATOM     10  C   UNL A   1     -14.772 206.634 114.126  0.00  0.00    +0.027 A 
BRANCH   8  11
ATOM     11  O   UNL A   1     -18.021 206.261 112.527  0.00  0.00    -0.495 OA
ATOM     12  C   UNL A   1     -18.587 207.029 111.471  0.00  0.00    +0.277 C 
ENDBRANCH   8  11
ENDBRANCH   3   5
BRANCH   1  13
ATOM     13  C   UNL A   1     -10.240 206.187 114.090  0.00  0.00    +0.173 C 
BRANCH  13  14
ATOM     14  S   UNL A   1      -9.933 207.583 112.965  0.00  0.00    -0.075 S 
BRANCH  14  20
ATOM     15  N   UNL A   1      -7.339 208.168 113.607  0.00  0.00    -0.223 N 
ATOM     16  C   UNL A   1      -6.687 207.256 112.710  0.00  0.00    +0.177 C 
ATOM     17  N   UNL A   1      -6.625 208.991 114.395  0.00  0.00    -0.043 NA
ATOM     18  N   UNL A   1      -7.523 209.710 115.056  0.00  0.00    -0.022 NA
ATOM     19  N   UNL A   1      -8.802 209.357 114.695  0.00  0.00    -0.102 NA
ATOM     20  C   UNL A   1      -8.669 208.401 113.802  0.00  0.00    +0.209 A 
ENDBRANCH  14  20
ENDBRANCH  13  14
ENDBRANCH   1  13
TORSDOF 5
ENDMDL
MODEL 3
REMARK minimizedAffinity -6.11022282
REMARK minimizedRMSD -1
REMARK  Name = *****
REMARK  7 active torsions:
REMARK  status: ('A' for Active; 'I' for Inactive)
REMARK    1  A    between atoms: N_1  and  C_2
REMARK    2  A    between atoms: C_6  and  S_7
REMARK    3  A    between atoms: S_7  and  C_8
REMARK    4  A    between atoms: C_8  and  C_9
REMARK    5  A    between atoms: N_11  and  C_12
REMARK    6  A    between atoms: C_15  and  O_18
REMARK    7  A    between atoms: O_18  and  C_19
REMARK                            x       y       z     vdW  Elec       q    Type
REMARK                         _______ _______ _______ _____ _____    ______ ____
ROOT
ATOM      1  C   UNL A   1     -14.840 204.018 116.112  0.00  0.00    +0.228 C 
ATOM      2  O   UNL A   1     -15.286 203.313 115.210  0.00  0.00    -0.275 OA
ATOM      3  N   UNL A   1     -13.843 204.977 115.984  0.00  0.00    -0.285 N 
ATOM      4  H   UNL A   1     -13.410 205.306 116.844  0.00  0.00    +0.155 HD
ENDROOT
BRANCH   3   5
ATOM      5  C   UNL A   1     -13.183 205.326 114.789  0.00  0.00    +0.034 A 
ATOM      6  C   UNL A   1     -13.832 205.924 113.709  0.00  0.00    +0.027 A 
ATOM      7  C   UNL A   1     -13.146 206.195 112.520  0.00  0.00    +0.047 A 
ATOM      8  C   UNL A   1     -11.797 205.877 112.401  0.00  0.00    +0.120 A 
ATOM      9  C   UNL A   1     -11.128 205.331 113.495  0.00  0.00    +0.047 A 
ATOM     10  C   UNL A   1     -11.812 205.066 114.692  0.00  0.00    +0.027 A 
BRANCH   8  11
ATOM     11  O   UNL A   1     -11.038 206.055 111.275  0.00  0.00    -0.495 OA
ATOM     12  C   UNL A   1     -11.602 206.869 110.253  0.00  0.00    +0.277 C 
ENDBRANCH   8  11
ENDBRANCH   3   5
BRANCH   1  13
ATOM     13  C   UNL A   1     -15.340 203.844 117.535  0.00  0.00    +0.173 C 
BRANCH  13  14
ATOM     14  S   UNL A   1     -15.731 202.097 117.858  0.00  0.00    -0.075 S 
BRANCH  14  20
ATOM     15  N   UNL A   1     -18.004 202.599 119.294  0.00  0.00    -0.223 N 
ATOM     16  C   UNL A   1     -17.393 203.043 120.515  0.00  0.00    +0.177 C 
ATOM     17  N   UNL A   1     -19.343 202.579 119.160  0.00  0.00    -0.043 NA
ATOM     18  N   UNL A   1     -19.564 202.159 117.921  0.00  0.00    -0.022 NA
ATOM     19  N   UNL A   1     -18.382 201.915 117.263  0.00  0.00    -0.102 NA
ATOM     20  C   UNL A   1     -17.430 202.189 118.127  0.00  0.00    +0.209 A 
ENDBRANCH  14  20
ENDBRANCH  13  14
ENDBRANCH   1  13
TORSDOF 5
ENDMDL
MODEL 4
REMARK minimizedAffinity -6.10671616
REMARK minimizedRMSD -1
REMARK  Name = *****
REMARK  7 active torsions:
REMARK  status: ('A' for Active; 'I' for Inactive)
REMARK    1  A    between atoms: N_1  and  C_2
REMARK    2  A    between atoms: C_6  and  S_7
REMARK    3  A    between atoms: S_7  and  C_8
REMARK    4  A    between atoms: C_8  and  C_9
REMARK    5  A    between atoms: N_11  and  C_12
REMARK    6  A    between atoms: C_15  and  O_18
REMARK    7  A    between atoms: O_18  and  C_19
REMARK                            x       y       z     vdW  Elec       q    Type
REMARK                         _______ _______ _______ _____ _____    ______ ____
ROOT
ATOM      1  C   UNL A   1     -14.594 203.642 116.543  0.00  0.00    +0.228 C 
ATOM      2  O   UNL A   1     -15.302 203.582 115.540  0.00  0.00    -0.275 OA
ATOM      3  N   UNL A   1     -13.367 204.285 116.640  0.00  0.00    -0.285 N 
ATOM      4  H   UNL A   1     -12.788 204.051 117.443  0.00  0.00    +0.155 HD
ENDROOT
BRANCH   3   5
ATOM      5  C   UNL A   1     -12.727 205.001 115.609  0.00  0.00    +0.034 A 
ATOM      6  C   UNL A   1     -11.497 204.623 115.071  0.00  0.00    +0.027 A 
ATOM      7  C   UNL A   1     -10.872 205.401 114.090  0.00  0.00    +0.047 A 
ATOM      8  C   UNL A   1     -11.478 206.566 113.629  0.00  0.00    +0.120 A 
ATOM      9  C   UNL A   1     -12.733 206.920 114.120  0.00  0.00    +0.047 A 
ATOM     10  C   UNL A   1     -13.365 206.137 115.098  0.00  0.00    +0.027 A 
BRANCH   8  11
ATOM     11  O   UNL A   1     -10.941 207.426 112.708  0.00  0.00    -0.495 OA
ATOM     12  C   UNL A   1     -10.708 206.897 111.408  0.00  0.00    +0.277 C 
ENDBRANCH   8  11
ENDBRANCH   3   5
BRANCH   1  13
ATOM     13  C   UNL A   1     -15.011 202.928 117.816  0.00  0.00    +0.173 C 
BRANCH  13  14
ATOM     14  S   UNL A   1     -16.820 202.749 117.876  0.00  0.00    -0.075 S 
BRANCH  14  20
ATOM     15  N   UNL A   1     -17.615 200.883 119.712  0.00  0.00    -0.223 N 
ATOM     16  C   UNL A   1     -18.305 201.757 120.619  0.00  0.00    +0.177 C 
ATOM     17  N   UNL A   1     -17.568 199.557 119.933  0.00  0.00    -0.043 NA
ATOM     18  N   UNL A   1     -16.897 199.055 118.903  0.00  0.00    -0.022 NA
ATOM     19  N   UNL A   1     -16.519 200.046 118.029  0.00  0.00    -0.102 NA
ATOM     20  C   UNL A   1     -16.968 201.168 118.546  0.00  0.00    +0.209 A 
ENDBRANCH  14  20
ENDBRANCH  13  14
ENDBRANCH   1  13
TORSDOF 5
ENDMDL
MODEL 5
REMARK minimizedAffinity -6.0939374
REMARK minimizedRMSD -1
REMARK  Name = *****
REMARK  7 active torsions:
REMARK  status: ('A' for Active; 'I' for Inactive)
REMARK    1  A    between atoms: N_1  and  C_2
REMARK    2  A    between atoms: C_6  and  S_7
REMARK    3  A    between atoms: S_7  and  C_8
REMARK    4  A    between atoms: C_8  and  C_9
REMARK    5  A    between atoms: N_11  and  C_12
REMARK    6  A    between atoms: C_15  and  O_18
REMARK    7  A    between atoms: O_18  and  C_19
REMARK                            x       y       z     vdW  Elec       q    Type
REMARK                         _______ _______ _______ _____ _____    ______ ____
ROOT
ATOM      1  C   UNL A   1     -14.527 203.841 116.771  0.00  0.00    +0.228 C 
ATOM      2  O   UNL A   1     -13.307 203.725 116.866  0.00  0.00    -0.275 OA
ATOM      3  N   UNL A   1     -15.223 204.278 115.651  0.00  0.00    -0.285 N 
ATOM      4  H   UNL A   1     -16.192 204.552 115.792  0.00  0.00    +0.155 HD
ENDROOT
BRANCH   3   5
ATOM      5  C   UNL A   1     -14.651 204.646 114.417  0.00  0.00    +0.034 A 
ATOM      6  C   UNL A   1     -14.705 203.836 113.283  0.00  0.00    +0.027 A 
ATOM      7  C   UNL A   1     -14.070 204.218 112.097  0.00  0.00    +0.047 A 
ATOM      8  C   UNL A   1     -13.376 205.423 112.030  0.00  0.00    +0.120 A 
ATOM      9  C   UNL A   1     -13.365 206.263 113.141  0.00  0.00    +0.047 A 
ATOM     10  C   UNL A   1     -14.009 205.886 114.330  0.00  0.00    +0.027 A 
BRANCH   8  11
ATOM     11  O   UNL A   1     -12.681 205.876 110.940  0.00  0.00    -0.495 OA
ATOM     12  C   UNL A   1     -11.446 206.532 111.204  0.00  0.00    +0.277 C 
ENDBRANCH   8  11
ENDBRANCH   3   5
BRANCH   1  13
ATOM     13  C   UNL A   1     -15.416 203.545 117.966  0.00  0.00    +0.173 C 
BRANCH  13  14
ATOM     14  S   UNL A   1     -15.985 201.818 117.917  0.00  0.00    -0.075 S 
BRANCH  14  20
ATOM     15  N   UNL A   1     -18.273 202.362 119.315  0.00  0.00    -0.223 N 
ATOM     16  C   UNL A   1     -17.683 202.619 120.599  0.00  0.00    +0.177 C 
ATOM     17  N   UNL A   1     -19.601 202.474 119.131  0.00  0.00    -0.043 NA
ATOM     18  N   UNL A   1     -19.799 202.209 117.846  0.00  0.00    -0.022 NA
ATOM     19  N   UNL A   1     -18.612 201.934 117.209  0.00  0.00    -0.102 NA
ATOM     20  C   UNL A   1     -17.682 202.030 118.132  0.00  0.00    +0.209 A 
ENDBRANCH  14  20
ENDBRANCH  13  14
ENDBRANCH   1  13
TORSDOF 5
ENDMDL
MODEL 6
REMARK minimizedAffinity -6.03957796
REMARK minimizedRMSD -1
REMARK  Name = *****
REMARK  7 active torsions:
REMARK  status: ('A' for Active; 'I' for Inactive)
REMARK    1  A    between atoms: N_1  and  C_2
REMARK    2  A    between atoms: C_6  and  S_7
REMARK    3  A    between atoms: S_7  and  C_8
REMARK    4  A    between atoms: C_8  and  C_9
REMARK    5  A    between atoms: N_11  and  C_12
REMARK    6  A    between atoms: C_15  and  O_18
REMARK    7  A    between atoms: O_18  and  C_19
REMARK                            x       y       z     vdW  Elec       q    Type
REMARK                         _______ _______ _______ _____ _____    ______ ____
ROOT
ATOM      1  C   UNL A   1     -12.282 206.002 113.559  0.00  0.00    +0.228 C 
ATOM      2  O   UNL A   1     -12.448 207.199 113.785  0.00  0.00    -0.275 OA
ATOM      3  N   UNL A   1     -13.250 205.111 113.115  0.00  0.00    -0.285 N 
ATOM      4  H   UNL A   1     -13.037 204.120 113.204  0.00  0.00    +0.155 HD
ENDROOT
BRANCH   3   5
ATOM      5  C   UNL A   1     -14.592 205.429 112.825  0.00  0.00    +0.034 A 
ATOM      6  C   UNL A   1     -15.013 205.881 111.575  0.00  0.00    +0.027 A 
ATOM      7  C   UNL A   1     -16.346 206.243 111.353  0.00  0.00    +0.047 A 
ATOM      8  C   UNL A   1     -17.278 206.148 112.382  0.00  0.00    +0.120 A 
ATOM      9  C   UNL A   1     -16.878 205.644 113.617  0.00  0.00    +0.047 A 
ATOM     10  C   UNL A   1     -15.543 205.272 113.840  0.00  0.00    +0.027 A 
BRANCH   8  11
ATOM     11  O   UNL A   1     -18.594 206.515 112.293  0.00  0.00    -0.495 OA
ATOM     12  C   UNL A   1     -18.942 207.373 111.212  0.00  0.00    +0.277 C 
ENDBRANCH   8  11
ENDBRANCH   3   5
BRANCH   1  13
ATOM     13  C   UNL A   1     -10.931 205.358 113.815  0.00  0.00    +0.173 C 
BRANCH  13  14
ATOM     14  S   UNL A   1     -10.908 204.567 115.453  0.00  0.00    -0.075 S 
BRANCH  14  20
ATOM     15  N   UNL A   1     -11.992 206.182 117.377  0.00  0.00    -0.223 N 
ATOM     16  C   UNL A   1     -13.150 205.394 117.690  0.00  0.00    +0.177 C 
ATOM     17  N   UNL A   1     -11.739 207.328 118.034  0.00  0.00    -0.043 NA
ATOM     18  N   UNL A   1     -10.594 207.774 117.532  0.00  0.00    -0.022 NA
ATOM     19  N   UNL A   1     -10.113 206.923 116.565  0.00  0.00    -0.102 NA
ATOM     20  C   UNL A   1     -10.991 205.948 116.481  0.00  0.00    +0.209 A 
ENDBRANCH  14  20
ENDBRANCH  13  14
ENDBRANCH   1  13
TORSDOF 5
ENDMDL
MODEL 7
REMARK minimizedAffinity -5.98946476
REMARK minimizedRMSD -1
REMARK  Name = *****
REMARK  7 active torsions:
REMARK  status: ('A' for Active; 'I' for Inactive)
REMARK    1  A    between atoms: N_1  and  C_2
REMARK    2  A    between atoms: C_6  and  S_7
REMARK    3  A    between atoms: S_7  and  C_8
REMARK    4  A    between atoms: C_8  and  C_9
REMARK    5  A    between atoms: N_11  and  C_12
REMARK    6  A    between atoms: C_15  and  O_18
REMARK    7  A    between atoms: O_18  and  C_19
REMARK                            x       y       z     vdW  Elec       q    Type
REMARK                         _______ _______ _______ _____ _____    ______ ____
ROOT
ATOM      1  C   UNL A   1     -10.489 207.069 112.668  0.00  0.00    +0.228 C 
ATOM      2  O   UNL A   1     -10.604 207.688 111.612  0.00  0.00    -0.275 OA
ATOM      3  N   UNL A   1     -11.490 206.350 113.308  0.00  0.00    -0.285 N 
ATOM      4  H   UNL A   1     -11.323 206.096 114.279  0.00  0.00    +0.155 HD
ENDROOT
BRANCH   3   5
ATOM      5  C   UNL A   1     -12.811 206.187 112.847  0.00  0.00    +0.034 A 
ATOM      6  C   UNL A   1     -13.133 205.457 111.702  0.00  0.00    +0.027 A 
ATOM      7  C   UNL A   1     -14.454 205.374 111.250  0.00  0.00    +0.047 A 
ATOM      8  C   UNL A   1     -15.474 206.018 111.944  0.00  0.00    +0.120 A 
ATOM      9  C   UNL A   1     -15.169 206.702 113.120  0.00  0.00    +0.047 A 
ATOM     10  C   UNL A   1     -13.845 206.779 113.580  0.00  0.00    +0.027 A 
BRANCH   8  11
ATOM     11  O   UNL A   1     -16.791 206.044 111.571  0.00  0.00    -0.495 OA
ATOM     12  C   UNL A   1     -17.745 205.791 112.596  0.00  0.00    +0.277 C 
ENDBRANCH   8  11
ENDBRANCH   3   5
BRANCH   1  13
ATOM     13  C   UNL A   1      -9.172 207.088 113.425  0.00  0.00    +0.173 C 
BRANCH  13  14
ATOM     14  S   UNL A   1      -9.059 208.582 114.456  0.00  0.00    -0.075 S 
BRANCH  14  20
ATOM     15  N   UNL A   1      -9.375 207.530 116.961  0.00  0.00    -0.223 N 
ATOM     16  C   UNL A   1      -7.997 207.250 117.250  0.00  0.00    +0.177 C 
ATOM     17  N   UNL A   1     -10.336 207.281 117.869  0.00  0.00    -0.043 NA
ATOM     18  N   UNL A   1     -11.466 207.682 117.302  0.00  0.00    -0.022 NA
ATOM     19  N   UNL A   1     -11.236 208.187 116.044  0.00  0.00    -0.102 NA
ATOM     20  C   UNL A   1      -9.940 208.082 115.849  0.00  0.00    +0.209 A 
ENDBRANCH  14  20
ENDBRANCH  13  14
ENDBRANCH   1  13
TORSDOF 5
ENDMDL
MODEL 8
REMARK minimizedAffinity -5.94600725
REMARK minimizedRMSD -1
REMARK  Name = *****
REMARK  7 active torsions:
REMARK  status: ('A' for Active; 'I' for Inactive)
REMARK    1  A    between atoms: N_1  and  C_2
REMARK    2  A    between atoms: C_6  and  S_7
REMARK    3  A    between atoms: S_7  and  C_8
REMARK    4  A    between atoms: C_8  and  C_9
REMARK    5  A    between atoms: N_11  and  C_12
REMARK    6  A    between atoms: C_15  and  O_18
REMARK    7  A    between atoms: O_18  and  C_19
REMARK                            x       y       z     vdW  Elec       q    Type
REMARK                         _______ _______ _______ _____ _____    ______ ____
ROOT
ATOM      1  C   UNL A   1     -15.228 202.599 117.611  0.00  0.00    +0.228 C 
ATOM      2  O   UNL A   1     -15.095 201.378 117.649  0.00  0.00    -0.275 OA
ATOM      3  N   UNL A   1     -16.281 203.324 118.155  0.00  0.00    -0.285 N 
ATOM      4  H   UNL A   1     -16.384 204.287 117.843  0.00  0.00    +0.155 HD
ENDROOT
BRANCH   3   5
ATOM      5  C   UNL A   1     -17.373 202.786 118.865  0.00  0.00    +0.034 A 
ATOM      6  C   UNL A   1     -18.531 202.324 118.241  0.00  0.00    +0.027 A 
ATOM      7  C   UNL A   1     -19.614 201.855 118.992  0.00  0.00    +0.047 A 
ATOM      8  C   UNL A   1     -19.546 201.836 120.382  0.00  0.00    +0.120 A 
ATOM      9  C   UNL A   1     -18.371 202.243 121.011  0.00  0.00    +0.047 A 
ATOM     10  C   UNL A   1     -17.280 202.706 120.259  0.00  0.00    +0.027 A 
BRANCH   8  11
ATOM     11  O   UNL A   1     -20.557 201.442 121.218  0.00  0.00    -0.495 OA
ATOM     12  C   UNL A   1     -21.345 202.478 121.792  0.00  0.00    +0.277 C 
ENDBRANCH   8  11
ENDBRANCH   3   5
BRANCH   1  13
ATOM     13  C   UNL A   1     -14.212 203.456 116.876  0.00  0.00    +0.173 C 
BRANCH  13  14
ATOM     14  S   UNL A   1     -14.532 205.220 117.186  0.00  0.00    -0.075 S 
BRANCH  14  20
ATOM     15  N   UNL A   1     -15.269 206.728 115.026  0.00  0.00    -0.223 N 
ATOM     16  C   UNL A   1     -14.277 207.760 115.137  0.00  0.00    +0.177 C 
ATOM     17  N   UNL A   1     -16.159 206.732 114.018  0.00  0.00    -0.043 NA
ATOM     18  N   UNL A   1     -16.891 205.639 114.192  0.00  0.00    -0.022 NA
ATOM     19  N   UNL A   1     -16.475 204.937 115.299  0.00  0.00    -0.102 NA
ATOM     20  C   UNL A   1     -15.475 205.626 115.803  0.00  0.00    +0.209 A 
ENDBRANCH  14  20
ENDBRANCH  13  14
ENDBRANCH   1  13
TORSDOF 5
ENDMDL
MODEL 9
REMARK minimizedAffinity -5.87697935
REMARK minimizedRMSD -1
REMARK  Name = *****
REMARK  7 active torsions:
REMARK  status: ('A' for Active; 'I' for Inactive)
REMARK    1  A    between atoms: N_1  and  C_2
REMARK    2  A    between atoms: C_6  and  S_7
REMARK    3  A    between atoms: S_7  and  C_8
REMARK    4  A    between atoms: C_8  and  C_9
REMARK    5  A    between atoms: N_11  and  C_12
REMARK    6  A    between atoms: C_15  and  O_18
REMARK    7  A    between atoms: O_18  and  C_19
REMARK                            x       y       z     vdW  Elec       q    Type
REMARK                         _______ _______ _______ _____ _____    ______ ____
ROOT
ATOM      1  C   UNL A   1     -11.338 206.614 111.834  0.00  0.00    +0.228 C 
ATOM      2  O   UNL A   1     -10.980 207.203 110.816  0.00  0.00    -0.275 OA
ATOM      3  N   UNL A   1     -10.675 206.611 113.054  0.00  0.00    -0.285 N 
ATOM      4  H   UNL A   1     -10.950 205.897 113.724  0.00  0.00    +0.155 HD
ENDROOT
BRANCH   3   5
ATOM      5  C   UNL A   1      -9.481 207.301 113.345  0.00  0.00    +0.034 A 
ATOM      6  C   UNL A   1      -8.277 207.047 112.689  0.00  0.00    +0.027 A 
ATOM      7  C   UNL A   1      -7.104 207.715 113.056  0.00  0.00    +0.047 A 
ATOM      8  C   UNL A   1      -7.124 208.655 114.082  0.00  0.00    +0.120 A 
ATOM      9  C   UNL A   1      -8.335 208.956 114.704  0.00  0.00    +0.047 A 
ATOM     10  C   UNL A   1      -9.514 208.292 114.332  0.00  0.00    +0.027 A 
BRANCH   8  11
ATOM     11  O   UNL A   1      -6.034 209.335 114.554  0.00  0.00    -0.495 OA
ATOM     12  C   UNL A   1      -6.162 209.921 115.844  0.00  0.00    +0.277 C 
ENDBRANCH   8  11
ENDBRANCH   3   5
BRANCH   1  13
ATOM     13  C   UNL A   1     -12.587 205.750 111.816  0.00  0.00    +0.173 C 
BRANCH  13  14
ATOM     14  S   UNL A   1     -12.836 204.966 113.438  0.00  0.00    -0.075 S 
BRANCH  14  20
ATOM     15  N   UNL A   1     -14.928 206.537 114.233  0.00  0.00    -0.223 N 
ATOM     16  C   UNL A   1     -14.186 207.708 114.608  0.00  0.00    +0.177 C 
ATOM     17  N   UNL A   1     -16.271 206.516 114.314  0.00  0.00    -0.043 NA
ATOM     18  N   UNL A   1     -16.630 205.321 113.864  0.00  0.00    -0.022 NA
ATOM     19  N   UNL A   1     -15.531 204.581 113.495  0.00  0.00    -0.102 NA
ATOM     20  C   UNL A   1     -14.490 205.347 113.733  0.00  0.00    +0.209 A 
ENDBRANCH  14  20
ENDBRANCH  13  14
ENDBRANCH   1  13
TORSDOF 5
ENDMDL
