MODEL 1
REMARK minimizedAffinity -8.20460224
REMARK minimizedRMSD -1
REMARK  Name = *****
REMARK  9 active torsions:
REMARK  status: ('A' for Active; 'I' for Inactive)
REMARK    1  A    between atoms: C_2  and  C_3
REMARK    2  A    between atoms: C_2  and  C_4
REMARK    3  A    between atoms: C_7  and  O_20
REMARK    4  A    between atoms: C_8  and  C_9
REMARK    5  A    between atoms: C_9  and  C_10
REMARK    6  A    between atoms: C_11  and  O_12
REMARK    7  A    between atoms: C_17  and  O_18
REMARK    8  A    between atoms: O_20  and  C_21
REMARK    9  A    between atoms: C_21  and  C_22
REMARK                            x       y       z     vdW  Elec       q    Type
REMARK                         _______ _______ _______ _____ _____    ______ ____
ROOT
ATOM      1  C   UNL A   1     -13.116 207.234 114.564  0.00  0.00    +0.084 C 
ENDROOT
BRANCH   1   2
ATOM      2  C   UNL A   1     -13.107 206.416 115.827  0.00  0.00    +0.080 A 
ATOM      3  C   UNL A   1     -12.431 205.230 116.014  0.00  0.00    +0.224 A 
ATOM      4  N   UNL A   1     -12.472 204.499 117.140  0.00  0.00    -0.179 NA
ATOM      5  C   UNL A   1     -13.218 204.966 118.136  0.00  0.00    +0.219 A 
ATOM      6  N   UNL A   1     -13.338 204.183 119.265  0.00  0.00    -0.327 N 
ATOM      7  N   UNL A   1     -13.910 206.100 118.094  0.00  0.00    -0.179 NA
ATOM      8  C   UNL A   1     -13.814 206.787 116.949  0.00  0.00    +0.224 A 
ATOM      9  H   UNL A   1     -13.140 203.222 119.015  0.00  0.00    +0.145 HD
ATOM     10  H   UNL A   1     -14.224 204.364 119.714  0.00  0.00    +0.145 HD
BRANCH   3  11
ATOM     11  O   UNL A   1     -11.619 204.670 115.075  0.00  0.00    -0.492 OA
ATOM     12  H   UNL A   1     -11.805 205.053 114.210  0.00  0.00    +0.294 HD
ENDBRANCH   3  11
BRANCH   8  13
ATOM     13  O   UNL A   1     -14.489 207.961 117.006  0.00  0.00    -0.492 OA
ATOM     14  H   UNL A   1     -14.836 207.918 117.915  0.00  0.00    +0.294 HD
ENDBRANCH   8  13
ENDBRANCH   1   2
BRANCH   1  19
ATOM     15  C   UNL A   1     -16.041 206.118 112.356  0.00  0.00    +0.018 A 
ATOM     16  C   UNL A   1     -15.377 205.612 111.241  0.00  0.00    +0.015 A 
ATOM     17  C   UNL A   1     -13.983 205.549 111.225  0.00  0.00    +0.046 A 
ATOM     18  C   UNL A   1     -13.231 206.021 112.308  0.00  0.00    +0.124 A 
ATOM     19  C   UNL A   1     -13.885 206.588 113.420  0.00  0.00    -0.000 A 
ATOM     20  C   UNL A   1     -15.293 206.597 113.438  0.00  0.00    +0.018 A 
BRANCH  15  22
ATOM     21  O   UNL A   1     -18.114 205.485 113.284  0.00  0.00    -0.292 OA
ATOM     22  C   UNL A   1     -17.530 206.159 112.434  0.00  0.00    +0.160 C 
ATOM     23  C   UNL A   1     -18.279 207.025 111.457  0.00  0.00    +0.091 C 
ENDBRANCH  15  22
BRANCH  18  24
ATOM     24  O   UNL A   1     -11.871 205.889 112.388  0.00  0.00    -0.492 OA
BRANCH  24  25
ATOM     25  C   UNL A   1     -11.092 206.521 111.372  0.00  0.00    +0.226 C 
ATOM     26  C   UNL A   1     -10.340 207.683 111.996  0.00  0.00    +0.048 C 
ENDBRANCH  24  25
ENDBRANCH  18  24
ENDBRANCH   1  19
TORSDOF 7
ENDMDL
MODEL 2
REMARK minimizedAffinity -8.18860722
REMARK minimizedRMSD -1
REMARK  Name = *****
REMARK  9 active torsions:
REMARK  status: ('A' for Active; 'I' for Inactive)
REMARK    1  A    between atoms: C_2  and  C_3
REMARK    2  A    between atoms: C_2  and  C_4
REMARK    3  A    between atoms: C_7  and  O_20
REMARK    4  A    between atoms: C_8  and  C_9
REMARK    5  A    between atoms: C_9  and  C_10
REMARK    6  A    between atoms: C_11  and  O_12
REMARK    7  A    between atoms: C_17  and  O_18
REMARK    8  A    between atoms: O_20  and  C_21
REMARK    9  A    between atoms: C_21  and  C_22
REMARK                            x       y       z     vdW  Elec       q    Type
REMARK                         _______ _______ _______ _____ _____    ______ ____
ROOT
ATOM      1  C   UNL A   1     -13.056 204.747 114.161  0.00  0.00    +0.084 C 
ENDROOT
BRANCH   1   2
ATOM      2  C   UNL A   1     -13.228 205.588 115.397  0.00  0.00    +0.080 A 
ATOM      3  C   UNL A   1     -12.610 206.795 115.643  0.00  0.00    +0.224 A 
ATOM      4  N   UNL A   1     -12.751 207.506 116.774  0.00  0.00    -0.179 NA
ATOM      5  C   UNL A   1     -13.547 207.000 117.711  0.00  0.00    +0.219 A 
ATOM      6  N   UNL A   1     -13.631 207.677 118.910  0.00  0.00    -0.327 N 
ATOM      7  N   UNL A   1     -14.211 205.854 117.599  0.00  0.00    -0.179 NA
ATOM      8  C   UNL A   1     -14.039 205.203 116.442  0.00  0.00    +0.224 A 
ATOM      9  H   UNL A   1     -12.802 208.246 119.020  0.00  0.00    +0.145 HD
ATOM     10  H   UNL A   1     -13.842 207.028 119.654  0.00  0.00    +0.145 HD
BRANCH   3  11
ATOM     11  O   UNL A   1     -11.795 207.419 114.748  0.00  0.00    -0.492 OA
ATOM     12  H   UNL A   1     -11.504 206.792 114.077  0.00  0.00    +0.294 HD
ENDBRANCH   3  11
BRANCH   8  13
ATOM     13  O   UNL A   1     -14.799 204.083 116.375  0.00  0.00    -0.492 OA
ATOM     14  H   UNL A   1     -15.250 204.127 117.237  0.00  0.00    +0.294 HD
ENDBRANCH   8  13
ENDBRANCH   1   2
BRANCH   1  19
ATOM     15  C   UNL A   1     -16.075 205.869 112.087  0.00  0.00    +0.018 A 
ATOM     16  C   UNL A   1     -15.466 206.294 110.908  0.00  0.00    +0.015 A 
ATOM     17  C   UNL A   1     -14.089 206.145 110.739  0.00  0.00    +0.046 A 
ATOM     18  C   UNL A   1     -13.295 205.601 111.756  0.00  0.00    +0.124 A 
ATOM     19  C   UNL A   1     -13.887 205.219 112.976  0.00  0.00    -0.000 A 
ATOM     20  C   UNL A   1     -15.284 205.331 113.110  0.00  0.00    +0.018 A 
BRANCH  15  22
ATOM     21  O   UNL A   1     -18.105 205.205 113.085  0.00  0.00    -0.292 OA
ATOM     22  C   UNL A   1     -17.550 205.964 112.290  0.00  0.00    +0.160 C 
ATOM     23  C   UNL A   1     -18.319 206.991 111.503  0.00  0.00    +0.091 C 
ENDBRANCH  15  22
BRANCH  18  24
ATOM     24  O   UNL A   1     -11.960 205.339 111.604  0.00  0.00    -0.492 OA
BRANCH  24  25
ATOM     25  C   UNL A   1     -11.078 206.459 111.532  0.00  0.00    +0.226 C 
ATOM     26  C   UNL A   1     -10.572 206.582 110.106  0.00  0.00    +0.048 C 
ENDBRANCH  24  25
ENDBRANCH  18  24
ENDBRANCH   1  19
TORSDOF 7
ENDMDL
MODEL 3
REMARK minimizedAffinity -8.15904045
REMARK minimizedRMSD -1
REMARK  Name = *****
REMARK  9 active torsions:
REMARK  status: ('A' for Active; 'I' for Inactive)
REMARK    1  A    between atoms: C_2  and  C_3
REMARK    2  A    between atoms: C_2  and  C_4
REMARK    3  A    between atoms: C_7  and  O_20
REMARK    4  A    between atoms: C_8  and  C_9
REMARK    5  A    between atoms: C_9  and  C_10
REMARK    6  A    between atoms: C_11  and  O_12
REMARK    7  A    between atoms: C_17  and  O_18
REMARK    8  A    between atoms: O_20  and  C_21
REMARK    9  A    between atoms: C_21  and  C_22
REMARK                            x       y       z     vdW  Elec       q    Type
REMARK                         _______ _______ _______ _____ _____    ______ ____
ROOT
ATOM      1  C   UNL A   1     -12.996 204.698 114.135  0.00  0.00    +0.084 C 
ENDROOT
BRANCH   1   2
ATOM      2  C   UNL A   1     -13.195 205.469 115.412  0.00  0.00    +0.080 A 
ATOM      3  C   UNL A   1     -14.020 205.102 116.454  0.00  0.00    +0.224 A 
ATOM      4  N   UNL A   1     -14.210 205.831 117.567  0.00  0.00    -0.179 NA
ATOM      5  C   UNL A   1     -13.550 206.981 117.656  0.00  0.00    +0.219 A 
ATOM      6  N   UNL A   1     -13.803 207.778 118.753  0.00  0.00    -0.327 N 
ATOM      7  N   UNL A   1     -12.717 207.447 116.732  0.00  0.00    -0.179 NA
ATOM      8  C   UNL A   1     -12.560 206.666 115.657  0.00  0.00    +0.224 A 
ATOM      9  H   UNL A   1     -14.712 207.536 119.127  0.00  0.00    +0.145 HD
ATOM     10  H   UNL A   1     -13.652 208.747 118.514  0.00  0.00    +0.145 HD
BRANCH   3  11
ATOM     11  O   UNL A   1     -14.724 203.937 116.483  0.00  0.00    -0.492 OA
ATOM     12  H   UNL A   1     -14.782 203.567 115.595  0.00  0.00    +0.294 HD
ENDBRANCH   3  11
BRANCH   8  13
ATOM     13  O   UNL A   1     -11.647 207.174 114.793  0.00  0.00    -0.492 OA
ATOM     14  H   UNL A   1     -11.386 207.981 115.270  0.00  0.00    +0.294 HD
ENDBRANCH   8  13
ENDBRANCH   1   2
BRANCH   1  19
ATOM     15  C   UNL A   1     -16.038 205.874 112.127  0.00  0.00    +0.018 A 
ATOM     16  C   UNL A   1     -15.443 206.337 110.956  0.00  0.00    +0.015 A 
ATOM     17  C   UNL A   1     -14.067 206.197 110.768  0.00  0.00    +0.046 A 
ATOM     18  C   UNL A   1     -13.261 205.625 111.761  0.00  0.00    +0.124 A 
ATOM     19  C   UNL A   1     -13.840 205.204 112.974  0.00  0.00    -0.000 A 
ATOM     20  C   UNL A   1     -15.235 205.307 113.125  0.00  0.00    +0.018 A 
BRANCH  15  22
ATOM     21  O   UNL A   1     -18.046 205.221 113.177  0.00  0.00    -0.292 OA
ATOM     22  C   UNL A   1     -17.512 205.959 112.348  0.00  0.00    +0.160 C 
ATOM     23  C   UNL A   1     -18.305 206.948 111.538  0.00  0.00    +0.091 C 
ENDBRANCH  15  22
BRANCH  18  24
ATOM     24  O   UNL A   1     -11.927 205.372 111.586  0.00  0.00    -0.492 OA
BRANCH  24  25
ATOM     25  C   UNL A   1     -11.054 206.498 111.502  0.00  0.00    +0.226 C 
ATOM     26  C   UNL A   1     -10.508 206.576 110.087  0.00  0.00    +0.048 C 
ENDBRANCH  24  25
ENDBRANCH  18  24
ENDBRANCH   1  19
TORSDOF 7
ENDMDL
MODEL 4
REMARK minimizedAffinity -7.96657181
REMARK minimizedRMSD -1
REMARK  Name = *****
REMARK  9 active torsions:
REMARK  status: ('A' for Active; 'I' for Inactive)
REMARK    1  A    between atoms: C_2  and  C_3
REMARK    2  A    between atoms: C_2  and  C_4
REMARK    3  A    between atoms: C_7  and  O_20
REMARK    4  A    between atoms: C_8  and  C_9
REMARK    5  A    between atoms: C_9  and  C_10
REMARK    6  A    between atoms: C_11  and  O_12
REMARK    7  A    between atoms: C_17  and  O_18
REMARK    8  A    between atoms: O_20  and  C_21
REMARK    9  A    between atoms: C_21  and  C_22
REMARK                            x       y       z     vdW  Elec       q    Type
REMARK                         _______ _______ _______ _____ _____    ______ ____
ROOT
ATOM      1  C   UNL A   1     -14.782 206.960 115.049  0.00  0.00    +0.084 C 
ENDROOT
BRANCH   1   2
ATOM      2  C   UNL A   1     -14.689 205.723 115.902  0.00  0.00    +0.080 A 
ATOM      3  C   UNL A   1     -13.606 205.354 116.671  0.00  0.00    +0.224 A 
ATOM      4  N   UNL A   1     -13.535 204.223 117.392  0.00  0.00    -0.179 NA
ATOM      5  C   UNL A   1     -14.590 203.415 117.354  0.00  0.00    +0.219 A 
ATOM      6  N   UNL A   1     -14.495 202.211 118.021  0.00  0.00    -0.327 N 
ATOM      7  N   UNL A   1     -15.701 203.655 116.665  0.00  0.00    -0.179 NA
ATOM      8  C   UNL A   1     -15.712 204.805 115.981  0.00  0.00    +0.224 A 
ATOM      9  H   UNL A   1     -13.516 201.975 118.125  0.00  0.00    +0.145 HD
ATOM     10  H   UNL A   1     -15.085 201.525 117.572  0.00  0.00    +0.145 HD
BRANCH   3  11
ATOM     11  O   UNL A   1     -12.483 206.113 116.804  0.00  0.00    -0.492 OA
ATOM     12  H   UNL A   1     -12.444 206.767 116.096  0.00  0.00    +0.294 HD
ENDBRANCH   3  11
BRANCH   8  13
ATOM     13  O   UNL A   1     -16.900 205.012 115.361  0.00  0.00    -0.492 OA
ATOM     14  H   UNL A   1     -17.383 204.213 115.639  0.00  0.00    +0.294 HD
ENDBRANCH   8  13
ENDBRANCH   1   2
BRANCH   1  19
ATOM     15  C   UNL A   1     -12.661 206.382 111.911  0.00  0.00    +0.018 A 
ATOM     16  C   UNL A   1     -13.636 206.089 110.960  0.00  0.00    +0.015 A 
ATOM     17  C   UNL A   1     -14.988 206.156 111.301  0.00  0.00    +0.046 A 
ATOM     18  C   UNL A   1     -15.385 206.485 112.603  0.00  0.00    +0.124 A 
ATOM     19  C   UNL A   1     -14.410 206.729 113.591  0.00  0.00    -0.000 A 
ATOM     20  C   UNL A   1     -13.053 206.704 113.216  0.00  0.00    +0.018 A 
BRANCH  15  22
ATOM     21  O   UNL A   1     -10.378 206.203 112.473  0.00  0.00    -0.292 OA
ATOM     22  C   UNL A   1     -11.207 206.369 111.577  0.00  0.00    +0.160 C 
ATOM     23  C   UNL A   1     -10.796 206.569 110.143  0.00  0.00    +0.091 C 
ENDBRANCH  15  22
BRANCH  18  24
ATOM     24  O   UNL A   1     -16.693 206.665 112.963  0.00  0.00    -0.492 OA
BRANCH  24  25
ATOM     25  C   UNL A   1     -17.684 205.998 112.181  0.00  0.00    +0.226 C 
ATOM     26  C   UNL A   1     -18.570 207.047 111.533  0.00  0.00    +0.048 C 
ENDBRANCH  24  25
ENDBRANCH  18  24
ENDBRANCH   1  19
TORSDOF 7
ENDMDL
MODEL 5
REMARK minimizedAffinity -7.65165854
REMARK minimizedRMSD -1
REMARK  Name = *****
REMARK  9 active torsions:
REMARK  status: ('A' for Active; 'I' for Inactive)
REMARK    1  A    between atoms: C_2  and  C_3
REMARK    2  A    between atoms: C_2  and  C_4
REMARK    3  A    between atoms: C_7  and  O_20
REMARK    4  A    between atoms: C_8  and  C_9
REMARK    5  A    between atoms: C_9  and  C_10
REMARK    6  A    between atoms: C_11  and  O_12
REMARK    7  A    between atoms: C_17  and  O_18
REMARK    8  A    between atoms: O_20  and  C_21
REMARK    9  A    between atoms: C_21  and  C_22
REMARK                            x       y       z     vdW  Elec       q    Type
REMARK                         _______ _______ _______ _____ _____    ______ ____
ROOT
ATOM      1  C   UNL A   1     -14.054 204.477 113.222  0.00  0.00    +0.084 C 
ENDROOT
BRANCH   1   2
ATOM      2  C   UNL A   1     -15.283 205.240 112.805  0.00  0.00    +0.080 A 
ATOM      3  C   UNL A   1     -16.351 205.553 113.617  0.00  0.00    +0.224 A 
ATOM      4  N   UNL A   1     -17.455 206.200 113.208  0.00  0.00    -0.179 NA
ATOM      5  C   UNL A   1     -17.505 206.560 111.929  0.00  0.00    +0.219 A 
ATOM      6  N   UNL A   1     -18.668 207.147 111.476  0.00  0.00    -0.327 N 
ATOM      7  N   UNL A   1     -16.541 206.331 111.042  0.00  0.00    -0.179 NA
ATOM      8  C   UNL A   1     -15.464 205.696 111.518  0.00  0.00    +0.224 A 
ATOM      9  H   UNL A   1     -19.426 206.882 112.093  0.00  0.00    +0.145 HD
ATOM     10  H   UNL A   1     -18.789 206.952 110.494  0.00  0.00    +0.145 HD
BRANCH   3  11
ATOM     11  O   UNL A   1     -16.399 205.257 114.946  0.00  0.00    -0.492 OA
ATOM     12  H   UNL A   1     -15.743 204.583 115.155  0.00  0.00    +0.294 HD
ENDBRANCH   3  11
BRANCH   8  13
ATOM     13  O   UNL A   1     -14.500 205.560 110.575  0.00  0.00    -0.492 OA
ATOM     14  H   UNL A   1     -14.931 206.001 109.821  0.00  0.00    +0.294 HD
ENDBRANCH   8  13
ENDBRANCH   1   2
BRANCH   1  19
ATOM     15  C   UNL A   1     -10.903 206.641 112.969  0.00  0.00    +0.018 A 
ATOM     16  C   UNL A   1     -10.830 207.185 114.250  0.00  0.00    +0.015 A 
ATOM     17  C   UNL A   1     -11.744 206.795 115.229  0.00  0.00    +0.046 A 
ATOM     18  C   UNL A   1     -12.766 205.883 114.935  0.00  0.00    +0.124 A 
ATOM     19  C   UNL A   1     -12.888 205.367 113.630  0.00  0.00    -0.000 A 
ATOM     20  C   UNL A   1     -11.927 205.734 112.669  0.00  0.00    +0.018 A 
BRANCH  15  22
ATOM     21  O   UNL A   1      -8.817 207.446 112.223  0.00  0.00    -0.292 OA
ATOM     22  C   UNL A   1      -9.917 206.993 111.906  0.00  0.00    +0.160 C 
ATOM     23  C   UNL A   1     -10.307 206.789 110.467  0.00  0.00    +0.091 C 
ENDBRANCH  15  22
BRANCH  18  24
ATOM     24  O   UNL A   1     -13.623 205.390 115.882  0.00  0.00    -0.492 OA
BRANCH  24  25
ATOM     25  C   UNL A   1     -13.049 204.669 116.972  0.00  0.00    +0.226 C 
ATOM     26  C   UNL A   1     -13.889 203.429 117.222  0.00  0.00    +0.048 C 
ENDBRANCH  24  25
ENDBRANCH  18  24
ENDBRANCH   1  19
TORSDOF 7
ENDMDL
MODEL 6
REMARK minimizedAffinity -7.62886429
REMARK minimizedRMSD -1
REMARK  Name = *****
REMARK  9 active torsions:
REMARK  status: ('A' for Active; 'I' for Inactive)
REMARK    1  A    between atoms: C_2  and  C_3
REMARK    2  A    between atoms: C_2  and  C_4
REMARK    3  A    between atoms: C_7  and  O_20
REMARK    4  A    between atoms: C_8  and  C_9
REMARK    5  A    between atoms: C_9  and  C_10
REMARK    6  A    between atoms: C_11  and  O_12
REMARK    7  A    between atoms: C_17  and  O_18
REMARK    8  A    between atoms: O_20  and  C_21
REMARK    9  A    between atoms: C_21  and  C_22
REMARK                            x       y       z     vdW  Elec       q    Type
REMARK                         _______ _______ _______ _____ _____    ______ ____
ROOT
ATOM      1  C   UNL A   1     -12.018 204.810 114.460  0.00  0.00    +0.084 C 
ENDROOT
BRANCH   1   2
ATOM      2  C   UNL A   1     -12.521 205.593 115.643  0.00  0.00    +0.080 A 
ATOM      3  C   UNL A   1     -13.721 206.267 115.711  0.00  0.00    +0.224 A 
ATOM      4  N   UNL A   1     -14.128 206.993 116.766  0.00  0.00    -0.179 NA
ATOM      5  C   UNL A   1     -13.307 207.053 117.810  0.00  0.00    +0.219 A 
ATOM      6  N   UNL A   1     -13.674 207.865 118.864  0.00  0.00    -0.327 N 
ATOM      7  N   UNL A   1     -12.129 206.443 117.880  0.00  0.00    -0.179 NA
ATOM      8  C   UNL A   1     -11.791 205.725 116.803  0.00  0.00    +0.224 A 
ATOM      9  H   UNL A   1     -14.325 208.562 118.524  0.00  0.00    +0.145 HD
ATOM     10  H   UNL A   1     -12.850 208.202 119.339  0.00  0.00    +0.145 HD
BRANCH   3  11
ATOM     11  O   UNL A   1     -14.649 206.256 114.714  0.00  0.00    -0.492 OA
ATOM     12  H   UNL A   1     -14.242 205.963 113.891  0.00  0.00    +0.294 HD
ENDBRANCH   3  11
BRANCH   8  13
ATOM     13  O   UNL A   1     -10.612 205.079 116.976  0.00  0.00    -0.492 OA
ATOM     14  H   UNL A   1     -10.390 205.361 117.882  0.00  0.00    +0.294 HD
ENDBRANCH   8  13
ENDBRANCH   1   2
BRANCH   1  19
ATOM     15  C   UNL A   1      -9.767 207.093 112.363  0.00  0.00    +0.018 A 
ATOM     16  C   UNL A   1     -10.452 207.131 111.151  0.00  0.00    +0.015 A 
ATOM     17  C   UNL A   1     -11.686 206.491 111.025  0.00  0.00    +0.046 A 
ATOM     18  C   UNL A   1     -12.237 205.776 112.096  0.00  0.00    +0.124 A 
ATOM     19  C   UNL A   1     -11.530 205.681 113.310  0.00  0.00    -0.000 A 
ATOM     20  C   UNL A   1     -10.311 206.374 113.435  0.00  0.00    +0.018 A 
BRANCH  15  22
ATOM     21  O   UNL A   1      -8.459 208.923 113.070  0.00  0.00    -0.292 OA
ATOM     22  C   UNL A   1      -8.469 207.804 112.556  0.00  0.00    +0.160 C 
ATOM     23  C   UNL A   1      -7.204 207.126 112.105  0.00  0.00    +0.091 C 
ENDBRANCH  15  22
BRANCH  18  24
ATOM     24  O   UNL A   1     -13.487 205.218 112.058  0.00  0.00    -0.492 OA
BRANCH  24  25
ATOM     25  C   UNL A   1     -14.277 205.462 110.894  0.00  0.00    +0.226 C 
ATOM     26  C   UNL A   1     -15.627 205.999 111.335  0.00  0.00    +0.048 C 
ENDBRANCH  24  25
ENDBRANCH  18  24
ENDBRANCH   1  19
TORSDOF 7
ENDMDL
MODEL 7
REMARK minimizedAffinity -7.60033798
REMARK minimizedRMSD -1
REMARK  Name = *****
REMARK  9 active torsions:
REMARK  status: ('A' for Active; 'I' for Inactive)
REMARK    1  A    between atoms: C_2  and  C_3
REMARK    2  A    between atoms: C_2  and  C_4
REMARK    3  A    between atoms: C_7  and  O_20
REMARK    4  A    between atoms: C_8  and  C_9
REMARK    5  A    between atoms: C_9  and  C_10
REMARK    6  A    between atoms: C_11  and  O_12
REMARK    7  A    between atoms: C_17  and  O_18
REMARK    8  A    between atoms: O_20  and  C_21
REMARK    9  A    between atoms: C_21  and  C_22
REMARK                            x       y       z     vdW  Elec       q    Type
REMARK                         _______ _______ _______ _____ _____    ______ ____
ROOT
ATOM      1  C   UNL A   1     -12.025 204.870 114.500  0.00  0.00    +0.084 C 
ENDROOT
BRANCH   1   2
ATOM      2  C   UNL A   1     -12.421 205.694 115.695  0.00  0.00    +0.080 A 
ATOM      3  C   UNL A   1     -11.639 205.930 116.805  0.00  0.00    +0.224 A 
ATOM      4  N   UNL A   1     -12.033 206.638 117.877  0.00  0.00    -0.179 NA
ATOM      5  C   UNL A   1     -13.263 207.140 117.850  0.00  0.00    +0.219 A 
ATOM      6  N   UNL A   1     -13.710 207.794 118.980  0.00  0.00    -0.327 N 
ATOM      7  N   UNL A   1     -14.115 206.998 116.840  0.00  0.00    -0.179 NA
ATOM      8  C   UNL A   1     -13.655 206.296 115.798  0.00  0.00    +0.224 A 
ATOM      9  H   UNL A   1     -13.171 207.473 119.775  0.00  0.00    +0.145 HD
ATOM     10  H   UNL A   1     -14.714 207.713 119.047  0.00  0.00    +0.145 HD
BRANCH   3  11
ATOM     11  O   UNL A   1     -10.358 205.488 116.932  0.00  0.00    -0.492 OA
ATOM     12  H   UNL A   1     -10.190 204.783 116.295  0.00  0.00    +0.294 HD
ENDBRANCH   3  11
BRANCH   8  13
ATOM     13  O   UNL A   1     -14.553 206.252 114.783  0.00  0.00    -0.492 OA
ATOM     14  H   UNL A   1     -15.275 206.782 115.166  0.00  0.00    +0.294 HD
ENDBRANCH   8  13
ENDBRANCH   1   2
BRANCH   1  19
ATOM     15  C   UNL A   1      -9.769 207.081 112.333  0.00  0.00    +0.018 A 
ATOM     16  C   UNL A   1     -10.443 207.065 111.114  0.00  0.00    +0.015 A 
ATOM     17  C   UNL A   1     -11.671 206.412 111.003  0.00  0.00    +0.046 A 
ATOM     18  C   UNL A   1     -12.228 205.738 112.096  0.00  0.00    +0.124 A 
ATOM     19  C   UNL A   1     -11.532 205.696 113.320  0.00  0.00    -0.000 A 
ATOM     20  C   UNL A   1     -10.319 206.402 113.428  0.00  0.00    +0.018 A 
BRANCH  15  22
ATOM     21  O   UNL A   1      -8.474 208.928 113.020  0.00  0.00    -0.292 OA
ATOM     22  C   UNL A   1      -8.478 207.808 112.509  0.00  0.00    +0.160 C 
ATOM     23  C   UNL A   1      -7.209 207.143 112.045  0.00  0.00    +0.091 C 
ENDBRANCH  15  22
BRANCH  18  24
ATOM     24  O   UNL A   1     -13.474 205.171 112.070  0.00  0.00    -0.492 OA
BRANCH  24  25
ATOM     25  C   UNL A   1     -14.272 205.401 110.909  0.00  0.00    +0.226 C 
ATOM     26  C   UNL A   1     -15.531 206.138 111.331  0.00  0.00    +0.048 C 
ENDBRANCH  24  25
ENDBRANCH  18  24
ENDBRANCH   1  19
TORSDOF 7
ENDMDL
MODEL 8
REMARK minimizedAffinity -7.43426228
REMARK minimizedRMSD -1
REMARK  Name = *****
REMARK  9 active torsions:
REMARK  status: ('A' for Active; 'I' for Inactive)
REMARK    1  A    between atoms: C_2  and  C_3
REMARK    2  A    between atoms: C_2  and  C_4
REMARK    3  A    between atoms: C_7  and  O_20
REMARK    4  A    between atoms: C_8  and  C_9
REMARK    5  A    between atoms: C_9  and  C_10
REMARK    6  A    between atoms: C_11  and  O_12
REMARK    7  A    between atoms: C_17  and  O_18
REMARK    8  A    between atoms: O_20  and  C_21
REMARK    9  A    between atoms: C_21  and  C_22
REMARK                            x       y       z     vdW  Elec       q    Type
REMARK                         _______ _______ _______ _____ _____    ______ ____
ROOT
ATOM      1  C   UNL A   1     -10.501 205.101 115.088  0.00  0.00    +0.084 C 
ENDROOT
BRANCH   1   2
ATOM      2  C   UNL A   1     -11.087 205.914 116.211  0.00  0.00    +0.080 A 
ATOM      3  C   UNL A   1     -10.612 207.128 116.660  0.00  0.00    +0.224 A 
ATOM      4  N   UNL A   1     -11.131 207.813 117.692  0.00  0.00    -0.179 NA
ATOM      5  C   UNL A   1     -12.176 207.273 118.312  0.00  0.00    +0.219 A 
ATOM      6  N   UNL A   1     -12.663 207.924 119.426  0.00  0.00    -0.327 N 
ATOM      7  N   UNL A   1     -12.739 206.117 117.975  0.00  0.00    -0.179 NA
ATOM      8  C   UNL A   1     -12.184 205.493 116.930  0.00  0.00    +0.224 A 
ATOM      9  H   UNL A   1     -11.929 208.507 119.807  0.00  0.00    +0.145 HD
ATOM     10  H   UNL A   1     -13.088 207.257 120.053  0.00  0.00    +0.145 HD
BRANCH   3  11
ATOM     11  O   UNL A   1      -9.566 207.786 116.088  0.00  0.00    -0.492 OA
ATOM     12  H   UNL A   1      -9.057 207.177 115.540  0.00  0.00    +0.294 HD
ENDBRANCH   3  11
BRANCH   8  13
ATOM     13  O   UNL A   1     -12.852 204.360 116.604  0.00  0.00    -0.492 OA
ATOM     14  H   UNL A   1     -13.561 204.378 117.272  0.00  0.00    +0.294 HD
ENDBRANCH   8  13
ENDBRANCH   1   2
BRANCH   1  19
ATOM     15  C   UNL A   1     -12.679 205.588 111.975  0.00  0.00    +0.018 A 
ATOM     16  C   UNL A   1     -11.939 206.522 111.254  0.00  0.00    +0.015 A 
ATOM     17  C   UNL A   1     -10.693 206.940 111.723  0.00  0.00    +0.046 A 
ATOM     18  C   UNL A   1     -10.183 206.457 112.936  0.00  0.00    +0.124 A 
ATOM     19  C   UNL A   1     -10.945 205.555 113.704  0.00  0.00    -0.000 A 
ATOM     20  C   UNL A   1     -12.177 205.108 113.190  0.00  0.00    +0.018 A 
BRANCH  15  22
ATOM     21  O   UNL A   1     -14.565 205.656 110.560  0.00  0.00    -0.292 OA
ATOM     22  C   UNL A   1     -13.993 205.078 111.485  0.00  0.00    +0.160 C 
ATOM     23  C   UNL A   1     -14.587 203.865 112.150  0.00  0.00    +0.091 C 
ENDBRANCH  15  22
BRANCH  18  24
ATOM     24  O   UNL A   1      -8.927 206.754 113.390  0.00  0.00    -0.492 OA
BRANCH  24  25
ATOM     25  C   UNL A   1      -8.202 207.768 112.693  0.00  0.00    +0.226 C 
ATOM     26  C   UNL A   1      -7.009 207.122 112.011  0.00  0.00    +0.048 C 
ENDBRANCH  24  25
ENDBRANCH  18  24
ENDBRANCH   1  19
TORSDOF 7
ENDMDL
MODEL 9
REMARK minimizedAffinity -7.42158747
REMARK minimizedRMSD -1
REMARK  Name = *****
REMARK  9 active torsions:
REMARK  status: ('A' for Active; 'I' for Inactive)
REMARK    1  A    between atoms: C_2  and  C_3
REMARK    2  A    between atoms: C_2  and  C_4
REMARK    3  A    between atoms: C_7  and  O_20
REMARK    4  A    between atoms: C_8  and  C_9
REMARK    5  A    between atoms: C_9  and  C_10
REMARK    6  A    between atoms: C_11  and  O_12
REMARK    7  A    between atoms: C_17  and  O_18
REMARK    8  A    between atoms: O_20  and  C_21
REMARK    9  A    between atoms: C_21  and  C_22
REMARK                            x       y       z     vdW  Elec       q    Type
REMARK                         _______ _______ _______ _____ _____    ______ ____
ROOT
ATOM      1  C   UNL A   1     -13.962 206.783 115.254  0.00  0.00    +0.084 C 
ENDROOT
BRANCH   1   2
ATOM      2  C   UNL A   1     -14.130 205.476 115.982  0.00  0.00    +0.080 A 
ATOM      3  C   UNL A   1     -13.177 204.864 116.767  0.00  0.00    +0.224 A 
ATOM      4  N   UNL A   1     -13.339 203.676 117.373  0.00  0.00    -0.179 NA
ATOM      5  C   UNL A   1     -14.506 203.063 117.199  0.00  0.00    +0.219 A 
ATOM      6  N   UNL A   1     -14.653 201.804 117.745  0.00  0.00    -0.327 N 
ATOM      7  N   UNL A   1     -15.513 203.547 116.479  0.00  0.00    -0.179 NA
ATOM      8  C   UNL A   1     -15.291 204.739 115.914  0.00  0.00    +0.224 A 
ATOM      9  H   UNL A   1     -13.735 201.399 117.878  0.00  0.00    +0.145 HD
ATOM     10  H   UNL A   1     -15.313 201.271 117.199  0.00  0.00    +0.145 HD
BRANCH   3  11
ATOM     11  O   UNL A   1     -11.958 205.409 117.035  0.00  0.00    -0.492 OA
ATOM     12  H   UNL A   1     -11.765 206.107 116.400  0.00  0.00    +0.294 HD
ENDBRANCH   3  11
BRANCH   8  13
ATOM     13  O   UNL A   1     -16.384 205.197 115.255  0.00  0.00    -0.492 OA
ATOM     14  H   UNL A   1     -17.008 204.468 115.425  0.00  0.00    +0.294 HD
ENDBRANCH   8  13
ENDBRANCH   1   2
BRANCH   1  19
ATOM     15  C   UNL A   1     -10.818 207.028 113.079  0.00  0.00    +0.018 A 
ATOM     16  C   UNL A   1     -11.225 206.374 111.918  0.00  0.00    +0.015 A 
ATOM     17  C   UNL A   1     -12.540 205.923 111.794  0.00  0.00    +0.046 A 
ATOM     18  C   UNL A   1     -13.458 206.088 112.839  0.00  0.00    +0.124 A 
ATOM     19  C   UNL A   1     -13.047 206.696 114.041  0.00  0.00    -0.000 A 
ATOM     20  C   UNL A   1     -11.731 207.189 114.129  0.00  0.00    +0.018 A 
BRANCH  15  22
ATOM     21  O   UNL A   1      -9.186 208.716 112.865  0.00  0.00    -0.292 OA
ATOM     22  C   UNL A   1      -9.436 207.568 113.235  0.00  0.00    +0.160 C 
ATOM     23  C   UNL A   1      -8.381 206.681 113.839  0.00  0.00    +0.091 C 
ENDBRANCH  15  22
BRANCH  18  24
ATOM     24  O   UNL A   1     -14.782 205.758 112.730  0.00  0.00    -0.492 OA
BRANCH  24  25
ATOM     25  C   UNL A   1     -15.116 204.672 111.865  0.00  0.00    +0.226 C 
ATOM     26  C   UNL A   1     -14.883 203.373 112.614  0.00  0.00    +0.048 C 
ENDBRANCH  24  25
ENDBRANCH  18  24
ENDBRANCH   1  19
TORSDOF 7
ENDMDL
