MODEL 1
REMARK minimizedAffinity -8.9793644
REMARK minimizedRMSD -1
REMARK  Name = *****
REMARK  6 active torsions:
REMARK  status: ('A' for Active; 'I' for Inactive)
REMARK    1  A    between atoms: N_2  and  C_4
REMARK    2  A    between atoms: C_7  and  C_10
REMARK    3  A    between atoms: N_11  and  C_12
REMARK    4  A    between atoms: C_18  and  S_21
REMARK    5  A    between atoms: S_21  and  C_22
REMARK    6  A    between atoms: C_22  and  C_23
REMARK                            x       y       z     vdW  Elec       q    Type
REMARK                         _______ _______ _______ _____ _____    ______ ____
ROOT
ATOM      1  C   UNL A   1     -14.035 204.564 114.477  0.00  0.00    +0.169 A 
ATOM      2  N   UNL A   1     -13.580 204.861 115.773  0.00  0.00    -0.270 N 
ATOM      3  C   UNL A   1     -14.381 204.082 116.602  0.00  0.00    +0.197 A 
ATOM      4  N   UNL A   1     -15.286 203.447 115.895  0.00  0.00    -0.122 NA
ATOM      5  N   UNL A   1     -15.080 203.757 114.573  0.00  0.00    -0.128 NA
ENDROOT
BRANCH   1   9
ATOM      6  C   UNL A   1     -12.409 206.264 110.893  0.00  0.00    +0.075 A 
ATOM      7  C   UNL A   1     -11.545 205.795 111.886  0.00  0.00    +0.029 A 
ATOM      8  C   UNL A   1     -12.072 205.150 113.010  0.00  0.00    +0.013 A 
ATOM      9  C   UNL A   1     -13.462 205.042 113.204  0.00  0.00    +0.020 A 
ATOM     10  C   UNL A   1     -14.309 205.463 112.166  0.00  0.00    +0.013 A 
ATOM     11  C   UNL A   1     -13.789 206.072 111.013  0.00  0.00    +0.029 A 
BRANCH   6  13
ATOM     12  O   UNL A   1     -10.705 206.709 109.381  0.00  0.00    -0.173 OA
ATOM     13  N   UNL A   1     -11.857 206.984 109.734  0.00  0.00    -0.187 N 
ATOM     14  O   UNL A   1     -12.577 207.832 109.188  0.00  0.00    -0.777 OA
ENDBRANCH   6  13
ENDBRANCH   1   9
BRANCH   2  15
ATOM     15  C   UNL A   1     -12.561 205.796 116.142  0.00  0.00    +0.051 A 
ATOM     16  C   UNL A   1     -12.782 207.177 116.013  0.00  0.00    +0.026 A 
ATOM     17  C   UNL A   1     -11.759 208.087 116.284  0.00  0.00    +0.002 A 
ATOM     18  C   UNL A   1     -10.531 207.634 116.755  0.00  0.00    +0.000 A 
ATOM     19  C   UNL A   1     -10.316 206.271 116.930  0.00  0.00    +0.002 A 
ATOM     20  C   UNL A   1     -11.314 205.352 116.601  0.00  0.00    +0.026 A 
ENDBRANCH   2  15
BRANCH   3  21
ATOM     21  S   UNL A   1     -14.377 204.192 118.337  0.00  0.00    -0.076 S 
BRANCH  21  22
ATOM     22  C   UNL A   1     -15.213 202.699 118.899  0.00  0.00    +0.173 C 
BRANCH  22  23
ATOM     23  C   UNL A   1     -16.263 202.897 119.990  0.00  0.00    +0.226 C 
ATOM     24  O   UNL A   1     -16.004 203.383 121.087  0.00  0.00    -0.275 OA
ATOM     25  N   UNL A   1     -17.566 202.511 119.647  0.00  0.00    -0.296 N 
ATOM     26  C   UNL A   1     -17.961 201.842 118.398  0.00  0.00    +0.136 C 
ATOM     27  C   UNL A   1     -19.350 202.302 117.935  0.00  0.00    +0.178 C 
ATOM     28  O   UNL A   1     -20.325 202.158 118.975  0.00  0.00    -0.377 OA
ATOM     29  C   UNL A   1     -19.953 202.937 120.125  0.00  0.00    +0.178 C 
ATOM     30  C   UNL A   1     -18.603 202.475 120.684  0.00  0.00    +0.136 C 
ENDBRANCH  22  23
ENDBRANCH  21  22
ENDBRANCH   3  21
TORSDOF 6
ENDMDL
MODEL 2
REMARK minimizedAffinity -8.82381916
REMARK minimizedRMSD -1
REMARK  Name = *****
REMARK  6 active torsions:
REMARK  status: ('A' for Active; 'I' for Inactive)
REMARK    1  A    between atoms: N_2  and  C_4
REMARK    2  A    between atoms: C_7  and  C_10
REMARK    3  A    between atoms: N_11  and  C_12
REMARK    4  A    between atoms: C_18  and  S_21
REMARK    5  A    between atoms: S_21  and  C_22
REMARK    6  A    between atoms: C_22  and  C_23
REMARK                            x       y       z     vdW  Elec       q    Type
REMARK                         _______ _______ _______ _____ _____    ______ ____
ROOT
ATOM      1  C   UNL A   1     -14.067 204.483 114.364  0.00  0.00    +0.169 A 
ATOM      2  N   UNL A   1     -13.646 204.694 115.689  0.00  0.00    -0.270 N 
ATOM      3  C   UNL A   1     -14.502 203.904 116.448  0.00  0.00    +0.197 A 
ATOM      4  N   UNL A   1     -15.404 203.340 115.680  0.00  0.00    -0.122 NA
ATOM      5  N   UNL A   1     -15.143 203.711 114.384  0.00  0.00    -0.128 NA
ENDROOT
BRANCH   1   9
ATOM      6  C   UNL A   1     -12.296 206.307 110.912  0.00  0.00    +0.075 A 
ATOM      7  C   UNL A   1     -11.479 205.891 111.967  0.00  0.00    +0.029 A 
ATOM      8  C   UNL A   1     -12.044 205.206 113.048  0.00  0.00    +0.013 A 
ATOM      9  C   UNL A   1     -13.434 205.005 113.138  0.00  0.00    +0.020 A 
ATOM     10  C   UNL A   1     -14.228 205.374 112.040  0.00  0.00    +0.013 A 
ATOM     11  C   UNL A   1     -13.666 206.022 110.929  0.00  0.00    +0.029 A 
BRANCH   6  13
ATOM     12  O   UNL A   1     -10.518 206.875 109.533  0.00  0.00    -0.173 OA
ATOM     13  N   UNL A   1     -11.710 207.069 109.798  0.00  0.00    -0.187 N 
ATOM     14  O   UNL A   1     -12.443 207.867 109.199  0.00  0.00    -0.777 OA
ENDBRANCH   6  13
ENDBRANCH   1   9
BRANCH   2  15
ATOM     15  C   UNL A   1     -12.607 205.570 116.139  0.00  0.00    +0.051 A 
ATOM     16  C   UNL A   1     -12.812 206.959 116.172  0.00  0.00    +0.026 A 
ATOM     17  C   UNL A   1     -11.772 207.822 116.523  0.00  0.00    +0.002 A 
ATOM     18  C   UNL A   1     -10.542 207.305 116.914  0.00  0.00    +0.000 A 
ATOM     19  C   UNL A   1     -10.341 205.928 116.929  0.00  0.00    +0.002 A 
ATOM     20  C   UNL A   1     -11.357 205.063 116.519  0.00  0.00    +0.026 A 
ENDBRANCH   2  15
BRANCH   3  21
ATOM     21  S   UNL A   1     -14.553 203.923 118.186  0.00  0.00    -0.076 S 
BRANCH  21  22
ATOM     22  C   UNL A   1     -15.476 202.445 118.641  0.00  0.00    +0.173 C 
BRANCH  22  23
ATOM     23  C   UNL A   1     -16.986 202.623 118.784  0.00  0.00    +0.226 C 
ATOM     24  O   UNL A   1     -17.752 202.635 117.824  0.00  0.00    -0.275 OA
ATOM     25  N   UNL A   1     -17.456 202.746 120.099  0.00  0.00    -0.296 N 
ATOM     26  C   UNL A   1     -16.617 202.832 121.303  0.00  0.00    +0.136 C 
ATOM     27  C   UNL A   1     -17.279 202.126 122.495  0.00  0.00    +0.178 C 
ATOM     28  O   UNL A   1     -18.613 202.602 122.712  0.00  0.00    -0.377 OA
ATOM     29  C   UNL A   1     -19.424 202.375 121.546  0.00  0.00    +0.178 C 
ATOM     30  C   UNL A   1     -18.855 203.117 120.332  0.00  0.00    +0.136 C 
ENDBRANCH  22  23
ENDBRANCH  21  22
ENDBRANCH   3  21
TORSDOF 6
ENDMDL
MODEL 3
REMARK minimizedAffinity -8.63198471
REMARK minimizedRMSD -1
REMARK  Name = *****
REMARK  6 active torsions:
REMARK  status: ('A' for Active; 'I' for Inactive)
REMARK    1  A    between atoms: N_2  and  C_4
REMARK    2  A    between atoms: C_7  and  C_10
REMARK    3  A    between atoms: N_11  and  C_12
REMARK    4  A    between atoms: C_18  and  S_21
REMARK    5  A    between atoms: S_21  and  C_22
REMARK    6  A    between atoms: C_22  and  C_23
REMARK                            x       y       z     vdW  Elec       q    Type
REMARK                         _______ _______ _______ _____ _____    ______ ____
ROOT
ATOM      1  C   UNL A   1     -14.625 204.813 117.421  0.00  0.00    +0.169 A 
ATOM      2  N   UNL A   1     -15.080 203.882 118.370  0.00  0.00    -0.270 N 
ATOM      3  C   UNL A   1     -14.589 204.362 119.580  0.00  0.00    +0.197 A 
ATOM      4  N   UNL A   1     -13.842 205.422 119.381  0.00  0.00    -0.122 NA
ATOM      5  N   UNL A   1     -13.853 205.696 118.035  0.00  0.00    -0.128 NA
ENDROOT
BRANCH   1   9
ATOM      6  C   UNL A   1     -15.332 205.136 113.205  0.00  0.00    +0.075 A 
ATOM      7  C   UNL A   1     -14.464 204.152 113.684  0.00  0.00    +0.029 A 
ATOM      8  C   UNL A   1     -14.310 203.981 115.064  0.00  0.00    +0.013 A 
ATOM      9  C   UNL A   1     -14.945 204.839 115.981  0.00  0.00    +0.020 A 
ATOM     10  C   UNL A   1     -15.861 205.779 115.481  0.00  0.00    +0.013 A 
ATOM     11  C   UNL A   1     -16.058 205.931 114.099  0.00  0.00    +0.029 A 
BRANCH   6  13
ATOM     12  O   UNL A   1     -14.556 204.913 111.029  0.00  0.00    -0.173 OA
ATOM     13  N   UNL A   1     -15.459 205.348 111.754  0.00  0.00    -0.187 N 
ATOM     14  O   UNL A   1     -16.456 205.960 111.347  0.00  0.00    -0.777 OA
ENDBRANCH   6  13
ENDBRANCH   1   9
BRANCH   2  15
ATOM     15  C   UNL A   1     -15.828 202.686 118.124  0.00  0.00    +0.051 A 
ATOM     16  C   UNL A   1     -17.229 202.729 118.034  0.00  0.00    +0.026 A 
ATOM     17  C   UNL A   1     -17.967 201.554 117.887  0.00  0.00    +0.002 A 
ATOM     18  C   UNL A   1     -17.313 200.334 117.756  0.00  0.00    +0.000 A 
ATOM     19  C   UNL A   1     -15.923 200.284 117.797  0.00  0.00    +0.002 A 
ATOM     20  C   UNL A   1     -15.182 201.449 118.008  0.00  0.00    +0.026 A 
ENDBRANCH   2  15
BRANCH   3  21
ATOM     21  S   UNL A   1     -14.697 203.495 121.083  0.00  0.00    -0.076 S 
BRANCH  21  22
ATOM     22  C   UNL A   1     -16.377 203.778 121.665  0.00  0.00    +0.173 C 
BRANCH  22  23
ATOM     23  C   UNL A   1     -17.331 202.593 121.540  0.00  0.00    +0.226 C 
ATOM     24  O   UNL A   1     -16.956 201.424 121.584  0.00  0.00    -0.275 OA
ATOM     25  N   UNL A   1     -18.686 202.923 121.399  0.00  0.00    -0.296 N 
ATOM     26  C   UNL A   1     -19.225 204.283 121.248  0.00  0.00    +0.136 C 
ATOM     27  C   UNL A   1     -20.585 204.424 121.945  0.00  0.00    +0.178 C 
ATOM     28  O   UNL A   1     -21.503 203.411 121.514  0.00  0.00    -0.377 OA
ATOM     29  C   UNL A   1     -20.982 202.103 121.803  0.00  0.00    +0.178 C 
ATOM     30  C   UNL A   1     -19.654 201.870 121.074  0.00  0.00    +0.136 C 
ENDBRANCH  22  23
ENDBRANCH  21  22
ENDBRANCH   3  21
TORSDOF 6
ENDMDL
MODEL 4
REMARK minimizedAffinity -8.55699062
REMARK minimizedRMSD -1
REMARK  Name = *****
REMARK  6 active torsions:
REMARK  status: ('A' for Active; 'I' for Inactive)
REMARK    1  A    between atoms: N_2  and  C_4
REMARK    2  A    between atoms: C_7  and  C_10
REMARK    3  A    between atoms: N_11  and  C_12
REMARK    4  A    between atoms: C_18  and  S_21
REMARK    5  A    between atoms: S_21  and  C_22
REMARK    6  A    between atoms: C_22  and  C_23
REMARK                            x       y       z     vdW  Elec       q    Type
REMARK                         _______ _______ _______ _____ _____    ______ ____
ROOT
ATOM      1  C   UNL A   1     -14.473 204.709 117.447  0.00  0.00    +0.169 A 
ATOM      2  N   UNL A   1     -14.316 205.462 116.271  0.00  0.00    -0.270 N 
ATOM      3  C   UNL A   1     -13.517 206.534 116.656  0.00  0.00    +0.197 A 
ATOM      4  N   UNL A   1     -13.285 206.488 117.947  0.00  0.00    -0.122 NA
ATOM      5  N   UNL A   1     -13.890 205.360 118.442  0.00  0.00    -0.128 NA
ENDROOT
BRANCH   1   9
ATOM      6  C   UNL A   1     -16.305 200.896 118.140  0.00  0.00    +0.075 A 
ATOM      7  C   UNL A   1     -17.034 202.064 118.380  0.00  0.00    +0.029 A 
ATOM      8  C   UNL A   1     -16.473 203.304 118.059  0.00  0.00    +0.013 A 
ATOM      9  C   UNL A   1     -15.152 203.407 117.582  0.00  0.00    +0.020 A 
ATOM     10  C   UNL A   1     -14.462 202.220 117.289  0.00  0.00    +0.013 A 
ATOM     11  C   UNL A   1     -15.032 200.966 117.565  0.00  0.00    +0.029 A 
BRANCH   6  13
ATOM     12  O   UNL A   1     -16.743 198.654 117.729  0.00  0.00    -0.173 OA
ATOM     13  N   UNL A   1     -16.877 199.594 118.521  0.00  0.00    -0.187 N 
ATOM     14  O   UNL A   1     -17.469 199.521 119.606  0.00  0.00    -0.777 OA
ENDBRANCH   6  13
ENDBRANCH   1   9
BRANCH   2  15
ATOM     15  C   UNL A   1     -14.900 205.202 114.989  0.00  0.00    +0.051 A 
ATOM     16  C   UNL A   1     -14.274 204.327 114.087  0.00  0.00    +0.026 A 
ATOM     17  C   UNL A   1     -14.790 204.143 112.803  0.00  0.00    +0.002 A 
ATOM     18  C   UNL A   1     -15.973 204.772 112.432  0.00  0.00    +0.000 A 
ATOM     19  C   UNL A   1     -16.627 205.606 113.334  0.00  0.00    +0.002 A 
ATOM     20  C   UNL A   1     -16.082 205.844 114.598  0.00  0.00    +0.026 A 
ENDBRANCH   2  15
BRANCH   3  21
ATOM     21  S   UNL A   1     -13.155 207.892 115.633  0.00  0.00    -0.076 S 
BRANCH  21  22
ATOM     22  C   UNL A   1     -11.360 208.028 115.658  0.00  0.00    +0.173 C 
BRANCH  22  23
ATOM     23  C   UNL A   1     -10.626 207.339 114.511  0.00  0.00    +0.226 C 
ATOM     24  O   UNL A   1     -11.193 206.631 113.684  0.00  0.00    -0.275 OA
ATOM     25  N   UNL A   1      -9.249 207.590 114.441  0.00  0.00    -0.296 N 
ATOM     26  C   UNL A   1      -8.465 208.348 115.427  0.00  0.00    +0.136 C 
ATOM     27  C   UNL A   1      -7.345 209.152 114.751  0.00  0.00    +0.178 C 
ATOM     28  O   UNL A   1      -6.531 208.318 113.916  0.00  0.00    -0.377 OA
ATOM     29  C   UNL A   1      -7.328 207.703 112.890  0.00  0.00    +0.178 C 
ATOM     30  C   UNL A   1      -8.424 206.823 113.501  0.00  0.00    +0.136 C 
ENDBRANCH  22  23
ENDBRANCH  21  22
ENDBRANCH   3  21
TORSDOF 6
ENDMDL
MODEL 5
REMARK minimizedAffinity -8.54999447
REMARK minimizedRMSD -1
REMARK  Name = *****
REMARK  6 active torsions:
REMARK  status: ('A' for Active; 'I' for Inactive)
REMARK    1  A    between atoms: N_2  and  C_4
REMARK    2  A    between atoms: C_7  and  C_10
REMARK    3  A    between atoms: N_11  and  C_12
REMARK    4  A    between atoms: C_18  and  S_21
REMARK    5  A    between atoms: S_21  and  C_22
REMARK    6  A    between atoms: C_22  and  C_23
REMARK                            x       y       z     vdW  Elec       q    Type
REMARK                         _______ _______ _______ _____ _____    ______ ____
ROOT
ATOM      1  C   UNL A   1     -12.106 205.355 116.110  0.00  0.00    +0.169 A 
ATOM      2  N   UNL A   1     -13.367 204.985 115.613  0.00  0.00    -0.270 N 
ATOM      3  C   UNL A   1     -13.913 204.196 116.621  0.00  0.00    +0.197 A 
ATOM      4  N   UNL A   1     -13.043 204.029 117.590  0.00  0.00    -0.122 NA
ATOM      5  N   UNL A   1     -11.913 204.739 117.266  0.00  0.00    -0.128 NA
ENDROOT
BRANCH   1   9
ATOM      6  C   UNL A   1      -9.091 207.962 114.532  0.00  0.00    +0.075 A 
ATOM      7  C   UNL A   1      -9.242 206.680 113.997  0.00  0.00    +0.029 A 
ATOM      8  C   UNL A   1     -10.289 205.866 114.441  0.00  0.00    +0.013 A 
ATOM      9  C   UNL A   1     -11.142 206.278 115.483  0.00  0.00    +0.020 A 
ATOM     10  C   UNL A   1     -11.012 207.591 115.962  0.00  0.00    +0.013 A 
ATOM     11  C   UNL A   1      -9.993 208.434 115.492  0.00  0.00    +0.029 A 
BRANCH   6  13
ATOM     12  O   UNL A   1      -7.447 208.549 113.003  0.00  0.00    -0.173 OA
ATOM     13  N   UNL A   1      -7.961 208.801 114.099  0.00  0.00    -0.187 N 
ATOM     14  O   UNL A   1      -7.587 209.700 114.863  0.00  0.00    -0.777 OA
ENDBRANCH   6  13
ENDBRANCH   1   9
BRANCH   2  15
ATOM     15  C   UNL A   1     -13.926 205.308 114.335  0.00  0.00    +0.051 A 
ATOM     16  C   UNL A   1     -14.694 206.471 114.168  0.00  0.00    +0.026 A 
ATOM     17  C   UNL A   1     -15.317 206.742 112.948  0.00  0.00    +0.002 A 
ATOM     18  C   UNL A   1     -15.119 205.894 111.863  0.00  0.00    +0.000 A 
ATOM     19  C   UNL A   1     -14.322 204.762 112.004  0.00  0.00    +0.002 A 
ATOM     20  C   UNL A   1     -13.749 204.453 113.239  0.00  0.00    +0.026 A 
ENDBRANCH   2  15
BRANCH   3  21
ATOM     21  S   UNL A   1     -15.401 203.311 116.463  0.00  0.00    -0.076 S 
BRANCH  21  22
ATOM     22  C   UNL A   1     -15.349 202.075 117.771  0.00  0.00    +0.173 C 
BRANCH  22  23
ATOM     23  C   UNL A   1     -15.945 202.500 119.111  0.00  0.00    +0.226 C 
ATOM     24  O   UNL A   1     -15.279 203.007 120.008  0.00  0.00    -0.275 OA
ATOM     25  N   UNL A   1     -17.326 202.302 119.245  0.00  0.00    -0.296 N 
ATOM     26  C   UNL A   1     -18.193 201.627 118.267  0.00  0.00    +0.136 C 
ATOM     27  C   UNL A   1     -19.587 202.268 118.223  0.00  0.00    +0.178 C 
ATOM     28  O   UNL A   1     -20.173 202.342 119.529  0.00  0.00    -0.377 OA
ATOM     29  C   UNL A   1     -19.346 203.122 120.408  0.00  0.00    +0.178 C 
ATOM     30  C   UNL A   1     -17.957 202.492 120.555  0.00  0.00    +0.136 C 
ENDBRANCH  22  23
ENDBRANCH  21  22
ENDBRANCH   3  21
TORSDOF 6
ENDMDL
MODEL 6
REMARK minimizedAffinity -8.52619743
REMARK minimizedRMSD -1
REMARK  Name = *****
REMARK  6 active torsions:
REMARK  status: ('A' for Active; 'I' for Inactive)
REMARK    1  A    between atoms: N_2  and  C_4
REMARK    2  A    between atoms: C_7  and  C_10
REMARK    3  A    between atoms: N_11  and  C_12
REMARK    4  A    between atoms: C_18  and  S_21
REMARK    5  A    between atoms: S_21  and  C_22
REMARK    6  A    between atoms: C_22  and  C_23
REMARK                            x       y       z     vdW  Elec       q    Type
REMARK                         _______ _______ _______ _____ _____    ______ ____
ROOT
ATOM      1  C   UNL A   1     -12.491 205.290 116.114  0.00  0.00    +0.169 A 
ATOM      2  N   UNL A   1     -13.731 204.902 115.576  0.00  0.00    -0.270 N 
ATOM      3  C   UNL A   1     -14.314 204.138 116.581  0.00  0.00    +0.197 A 
ATOM      4  N   UNL A   1     -13.485 204.000 117.589  0.00  0.00    -0.122 NA
ATOM      5  N   UNL A   1     -12.344 204.705 117.293  0.00  0.00    -0.128 NA
ENDROOT
BRANCH   1   9
ATOM      6  C   UNL A   1      -9.425 207.873 114.598  0.00  0.00    +0.075 A 
ATOM      7  C   UNL A   1      -9.523 206.565 114.117  0.00  0.00    +0.029 A 
ATOM      8  C   UNL A   1     -10.583 205.755 114.536  0.00  0.00    +0.013 A 
ATOM      9  C   UNL A   1     -11.504 206.200 115.503  0.00  0.00    +0.020 A 
ATOM     10  C   UNL A   1     -11.424 207.536 115.925  0.00  0.00    +0.013 A 
ATOM     11  C   UNL A   1     -10.391 208.374 115.477  0.00  0.00    +0.029 A 
BRANCH   6  13
ATOM     12  O   UNL A   1      -7.921 209.602 114.970  0.00  0.00    -0.173 OA
ATOM     13  N   UNL A   1      -8.284 208.711 114.194  0.00  0.00    -0.187 N 
ATOM     14  O   UNL A   1      -7.763 208.480 113.094  0.00  0.00    -0.777 OA
ENDBRANCH   6  13
ENDBRANCH   1   9
BRANCH   2  15
ATOM     15  C   UNL A   1     -14.237 205.190 114.268  0.00  0.00    +0.051 A 
ATOM     16  C   UNL A   1     -14.018 204.295 113.208  0.00  0.00    +0.026 A 
ATOM     17  C   UNL A   1     -14.429 204.615 111.913  0.00  0.00    +0.002 A 
ATOM     18  C   UNL A   1     -15.126 205.795 111.676  0.00  0.00    +0.000 A 
ATOM     19  C   UNL A   1     -15.389 206.668 112.728  0.00  0.00    +0.002 A 
ATOM     20  C   UNL A   1     -14.925 206.383 114.013  0.00  0.00    +0.026 A 
ENDBRANCH   2  15
BRANCH   3  21
ATOM     21  S   UNL A   1     -15.793 203.244 116.386  0.00  0.00    -0.076 S 
BRANCH  21  22
ATOM     22  C   UNL A   1     -16.336 202.871 118.062  0.00  0.00    +0.173 C 
BRANCH  22  23
ATOM     23  C   UNL A   1     -17.756 202.327 118.194  0.00  0.00    +0.226 C 
ATOM     24  O   UNL A   1     -18.337 201.744 117.283  0.00  0.00    -0.275 OA
ATOM     25  N   UNL A   1     -18.357 202.511 119.447  0.00  0.00    -0.296 N 
ATOM     26  C   UNL A   1     -17.783 203.269 120.569  0.00  0.00    +0.136 C 
ATOM     27  C   UNL A   1     -18.149 202.632 121.917  0.00  0.00    +0.178 C 
ATOM     28  O   UNL A   1     -19.564 202.441 122.041  0.00  0.00    -0.377 OA
ATOM     29  C   UNL A   1     -20.051 201.588 120.991  0.00  0.00    +0.178 C 
ATOM     30  C   UNL A   1     -19.781 202.205 119.615  0.00  0.00    +0.136 C 
ENDBRANCH  22  23
ENDBRANCH  21  22
ENDBRANCH   3  21
TORSDOF 6
ENDMDL
MODEL 7
REMARK minimizedAffinity -8.39185524
REMARK minimizedRMSD -1
REMARK  Name = *****
REMARK  6 active torsions:
REMARK  status: ('A' for Active; 'I' for Inactive)
REMARK    1  A    between atoms: N_2  and  C_4
REMARK    2  A    between atoms: C_7  and  C_10
REMARK    3  A    between atoms: N_11  and  C_12
REMARK    4  A    between atoms: C_18  and  S_21
REMARK    5  A    between atoms: S_21  and  C_22
REMARK    6  A    between atoms: C_22  and  C_23
REMARK                            x       y       z     vdW  Elec       q    Type
REMARK                         _______ _______ _______ _____ _____    ______ ____
ROOT
ATOM      1  C   UNL A   1     -13.406 203.538 116.946  0.00  0.00    +0.169 A 
ATOM      2  N   UNL A   1     -13.312 204.254 115.740  0.00  0.00    -0.270 N 
ATOM      3  C   UNL A   1     -11.977 204.639 115.676  0.00  0.00    +0.197 A 
ATOM      4  N   UNL A   1     -11.344 204.275 116.766  0.00  0.00    -0.122 NA
ATOM      5  N   UNL A   1     -12.236 203.602 117.564  0.00  0.00    -0.128 NA
ENDROOT
BRANCH   1   9
ATOM      6  C   UNL A   1     -16.649 201.352 118.701  0.00  0.00    +0.075 A 
ATOM      7  C   UNL A   1     -16.570 202.734 118.886  0.00  0.00    +0.029 A 
ATOM      8  C   UNL A   1     -15.571 203.462 118.232  0.00  0.00    +0.013 A 
ATOM      9  C   UNL A   1     -14.586 202.818 117.460  0.00  0.00    +0.020 A 
ATOM     10  C   UNL A   1     -14.720 201.438 117.236  0.00  0.00    +0.013 A 
ATOM     11  C   UNL A   1     -15.746 200.703 117.851  0.00  0.00    +0.029 A 
BRANCH   6  13
ATOM     12  O   UNL A   1     -17.423 199.396 119.681  0.00  0.00    -0.173 OA
ATOM     13  N   UNL A   1     -17.671 200.580 119.426  0.00  0.00    -0.187 N 
ATOM     14  O   UNL A   1     -18.724 201.160 119.726  0.00  0.00    -0.777 OA
ENDBRANCH   6  13
ENDBRANCH   1   9
BRANCH   2  15
ATOM     15  C   UNL A   1     -14.371 204.556 114.825  0.00  0.00    +0.051 A 
ATOM     16  C   UNL A   1     -14.469 203.876 113.601  0.00  0.00    +0.026 A 
ATOM     17  C   UNL A   1     -15.445 204.232 112.667  0.00  0.00    +0.002 A 
ATOM     18  C   UNL A   1     -16.375 205.219 112.976  0.00  0.00    +0.000 A 
ATOM     19  C   UNL A   1     -16.315 205.868 114.206  0.00  0.00    +0.002 A 
ATOM     20  C   UNL A   1     -15.304 205.560 115.117  0.00  0.00    +0.026 A 
ENDBRANCH   2  15
BRANCH   3  21
ATOM     21  S   UNL A   1     -11.334 205.716 114.471  0.00  0.00    -0.076 S 
BRANCH  21  22
ATOM     22  C   UNL A   1     -11.817 207.363 115.015  0.00  0.00    +0.173 C 
BRANCH  22  23
ATOM     23  C   UNL A   1     -12.025 207.532 116.518  0.00  0.00    +0.226 C 
ATOM     24  O   UNL A   1     -13.131 207.488 117.049  0.00  0.00    -0.275 OA
ATOM     25  N   UNL A   1     -10.856 207.715 117.270  0.00  0.00    -0.296 N 
ATOM     26  C   UNL A   1      -9.500 207.869 116.723  0.00  0.00    +0.136 C 
ATOM     27  C   UNL A   1      -8.453 207.216 117.635  0.00  0.00    +0.178 C 
ATOM     28  O   UNL A   1      -8.565 207.688 118.984  0.00  0.00    -0.377 OA
ATOM     29  C   UNL A   1      -9.869 207.396 119.513  0.00  0.00    +0.178 C 
ATOM     30  C   UNL A   1     -10.962 208.083 118.686  0.00  0.00    +0.136 C 
ENDBRANCH  22  23
ENDBRANCH  21  22
ENDBRANCH   3  21
TORSDOF 6
ENDMDL
MODEL 8
REMARK minimizedAffinity -8.15286255
REMARK minimizedRMSD -1
REMARK  Name = *****
REMARK  6 active torsions:
REMARK  status: ('A' for Active; 'I' for Inactive)
REMARK    1  A    between atoms: N_2  and  C_4
REMARK    2  A    between atoms: C_7  and  C_10
REMARK    3  A    between atoms: N_11  and  C_12
REMARK    4  A    between atoms: C_18  and  S_21
REMARK    5  A    between atoms: S_21  and  C_22
REMARK    6  A    between atoms: C_22  and  C_23
REMARK                            x       y       z     vdW  Elec       q    Type
REMARK                         _______ _______ _______ _____ _____    ______ ____
ROOT
ATOM      1  C   UNL A   1     -13.691 204.358 118.399  0.00  0.00    +0.169 A 
ATOM      2  N   UNL A   1     -13.394 204.965 117.166  0.00  0.00    -0.270 N 
ATOM      3  C   UNL A   1     -12.158 205.567 117.372  0.00  0.00    +0.197 A 
ATOM      4  N   UNL A   1     -11.781 205.419 118.621  0.00  0.00    -0.122 NA
ATOM      5  N   UNL A   1     -12.741 204.679 119.264  0.00  0.00    -0.128 NA
ENDROOT
BRANCH   1   9
ATOM      6  C   UNL A   1     -16.834 201.615 119.387  0.00  0.00    +0.075 A 
ATOM      7  C   UNL A   1     -16.462 202.597 120.309  0.00  0.00    +0.029 A 
ATOM      8  C   UNL A   1     -15.507 203.554 119.949  0.00  0.00    +0.013 A 
ATOM      9  C   UNL A   1     -14.847 203.495 118.707  0.00  0.00    +0.020 A 
ATOM     10  C   UNL A   1     -15.280 202.540 117.773  0.00  0.00    +0.013 A 
ATOM     11  C   UNL A   1     -16.270 201.602 118.107  0.00  0.00    +0.029 A 
BRANCH   6  13
ATOM     12  O   UNL A   1     -18.913 200.954 120.180  0.00  0.00    -0.173 OA
ATOM     13  N   UNL A   1     -17.803 200.580 119.782  0.00  0.00    -0.187 N 
ATOM     14  O   UNL A   1     -17.445 199.397 119.703  0.00  0.00    -0.777 OA
ENDBRANCH   6  13
ENDBRANCH   1   9
BRANCH   2  15
ATOM     15  C   UNL A   1     -14.215 204.996 115.994  0.00  0.00    +0.051 A 
ATOM     16  C   UNL A   1     -14.045 204.038 114.981  0.00  0.00    +0.026 A 
ATOM     17  C   UNL A   1     -14.779 204.119 113.796  0.00  0.00    +0.002 A 
ATOM     18  C   UNL A   1     -15.741 205.112 113.641  0.00  0.00    +0.000 A 
ATOM     19  C   UNL A   1     -15.951 206.039 114.657  0.00  0.00    +0.002 A 
ATOM     20  C   UNL A   1     -15.175 206.001 115.818  0.00  0.00    +0.026 A 
ENDBRANCH   2  15
BRANCH   3  21
ATOM     21  S   UNL A   1     -11.389 206.624 116.225  0.00  0.00    -0.076 S 
BRANCH  21  22
ATOM     22  C   UNL A   1     -10.650 205.527 115.004  0.00  0.00    +0.173 C 
BRANCH  22  23
ATOM     23  C   UNL A   1      -9.946 206.212 113.835  0.00  0.00    +0.226 C 
ATOM     24  O   UNL A   1      -8.746 206.472 113.838  0.00  0.00    -0.275 OA
ATOM     25  N   UNL A   1     -10.758 206.504 112.731  0.00  0.00    -0.296 N 
ATOM     26  C   UNL A   1     -12.214 206.313 112.664  0.00  0.00    +0.136 C 
ATOM     27  C   UNL A   1     -12.657 205.891 111.256  0.00  0.00    +0.178 C 
ATOM     28  O   UNL A   1     -12.169 206.797 110.258  0.00  0.00    -0.377 OA
ATOM     29  C   UNL A   1     -10.732 206.846 110.283  0.00  0.00    +0.178 C 
ATOM     30  C   UNL A   1     -10.225 207.334 111.645  0.00  0.00    +0.136 C 
ENDBRANCH  22  23
ENDBRANCH  21  22
ENDBRANCH   3  21
TORSDOF 6
ENDMDL
MODEL 9
REMARK minimizedAffinity -8.13431454
REMARK minimizedRMSD -1
REMARK  Name = *****
REMARK  6 active torsions:
REMARK  status: ('A' for Active; 'I' for Inactive)
REMARK    1  A    between atoms: N_2  and  C_4
REMARK    2  A    between atoms: C_7  and  C_10
REMARK    3  A    between atoms: N_11  and  C_12
REMARK    4  A    between atoms: C_18  and  S_21
REMARK    5  A    between atoms: S_21  and  C_22
REMARK    6  A    between atoms: C_22  and  C_23
REMARK                            x       y       z     vdW  Elec       q    Type
REMARK                         _______ _______ _______ _____ _____    ______ ____
ROOT
ATOM      1  C   UNL A   1     -14.715 204.743 117.548  0.00  0.00    +0.169 A 
ATOM      2  N   UNL A   1     -14.448 205.510 116.400  0.00  0.00    -0.270 N 
ATOM      3  C   UNL A   1     -13.814 206.647 116.890  0.00  0.00    +0.197 A 
ATOM      4  N   UNL A   1     -13.777 206.619 118.202  0.00  0.00    -0.122 NA
ATOM      5  N   UNL A   1     -14.350 205.441 118.613  0.00  0.00    -0.128 NA
ENDROOT
BRANCH   1   9
ATOM      6  C   UNL A   1     -16.268 200.772 117.990  0.00  0.00    +0.075 A 
ATOM      7  C   UNL A   1     -17.109 201.868 118.201  0.00  0.00    +0.029 A 
ATOM      8  C   UNL A   1     -16.631 203.160 117.960  0.00  0.00    +0.013 A 
ATOM      9  C   UNL A   1     -15.291 203.386 117.593  0.00  0.00    +0.020 A 
ATOM     10  C   UNL A   1     -14.482 202.270 117.326  0.00  0.00    +0.013 A 
ATOM     11  C   UNL A   1     -14.964 200.966 117.522  0.00  0.00    +0.029 A 
BRANCH   6  13
ATOM     12  O   UNL A   1     -16.629 198.554 117.412  0.00  0.00    -0.173 OA
ATOM     13  N   UNL A   1     -16.756 199.416 118.289  0.00  0.00    -0.187 N 
ATOM     14  O   UNL A   1     -17.275 199.223 119.397  0.00  0.00    -0.777 OA
ENDBRANCH   6  13
ENDBRANCH   1   9
BRANCH   2  15
ATOM     15  C   UNL A   1     -14.806 205.202 115.048  0.00  0.00    +0.051 A 
ATOM     16  C   UNL A   1     -16.001 205.693 114.499  0.00  0.00    +0.026 A 
ATOM     17  C   UNL A   1     -16.398 205.319 113.214  0.00  0.00    +0.002 A 
ATOM     18  C   UNL A   1     -15.571 204.513 112.438  0.00  0.00    +0.000 A 
ATOM     19  C   UNL A   1     -14.362 204.059 112.955  0.00  0.00    +0.002 A 
ATOM     20  C   UNL A   1     -13.990 204.377 114.263  0.00  0.00    +0.026 A 
ENDBRANCH   2  15
BRANCH   3  21
ATOM     21  S   UNL A   1     -13.421 208.034 115.918  0.00  0.00    -0.076 S 
BRANCH  21  22
ATOM     22  C   UNL A   1     -11.629 207.991 115.750  0.00  0.00    +0.173 C 
BRANCH  22  23
ATOM     23  C   UNL A   1     -10.963 206.655 116.071  0.00  0.00    +0.226 C 
ATOM     24  O   UNL A   1     -10.909 205.726 115.270  0.00  0.00    -0.275 OA
ATOM     25  N   UNL A   1     -10.382 206.563 117.343  0.00  0.00    -0.296 N 
ATOM     26  C   UNL A   1     -10.467 207.582 118.400  0.00  0.00    +0.136 C 
ATOM     27  C   UNL A   1      -9.172 207.643 119.220  0.00  0.00    +0.178 C 
ATOM     28  O   UNL A   1      -8.806 206.351 119.722  0.00  0.00    -0.377 OA
ATOM     29  C   UNL A   1      -8.610 205.428 118.638  0.00  0.00    +0.178 C 
ATOM     30  C   UNL A   1      -9.895 205.264 117.819  0.00  0.00    +0.136 C 
ENDBRANCH  22  23
ENDBRANCH  21  22
ENDBRANCH   3  21
TORSDOF 6
ENDMDL
