MODEL 1
REMARK minimizedAffinity -7.83257151
REMARK minimizedRMSD -1
REMARK  Name = *****
REMARK  11 active torsions:
REMARK  status: ('A' for Active; 'I' for Inactive)
REMARK    1  A    between atoms: N_1  and  C_2
REMARK    2  A    between atoms: C_3  and  C_22
REMARK    3  A    between atoms: C_6  and  S_7
REMARK    4  A    between atoms: S_7  and  C_8
REMARK    5  A    between atoms: C_8  and  C_9
REMARK    6  A    between atoms: N_11  and  C_12
REMARK    7  A    between atoms: C_15  and  C_18
REMARK    8  A    between atoms: C_18  and  O_20
REMARK    9  A    between atoms: O_20  and  C_21
REMARK   10  A    between atoms: C_25  and  N_28
REMARK   11  A    between atoms: C_29  and  C_31
REMARK                            x       y       z     vdW  Elec       q    Type
REMARK                         _______ _______ _______ _____ _____    ______ ____
ROOT
ATOM      1  N   UNL A   1     -10.795 206.201 118.271  0.00  0.00    -0.305 N 
ATOM      2  C   UNL A   1     -11.572 207.376 117.963  0.00  0.00    +0.153 C 
ATOM      3  C   UNL A   1     -11.234 204.906 118.488  0.00  0.00    +0.165 A 
ATOM      4  N   UNL A   1     -10.176 204.160 118.762  0.00  0.00    -0.128 NA
ATOM      5  N   UNL A   1      -9.043 204.935 118.652  0.00  0.00    -0.122 NA
ATOM      6  C   UNL A   1      -9.431 206.155 118.375  0.00  0.00    +0.192 A 
ENDROOT
BRANCH   3   7
ATOM      7  C   UNL A   1     -12.619 204.426 118.407  0.00  0.00    +0.019 A 
ATOM      8  C   UNL A   1     -13.110 203.866 117.226  0.00  0.00    +0.013 A 
ATOM      9  C   UNL A   1     -14.445 203.478 117.104  0.00  0.00    +0.024 A 
ATOM     10  C   UNL A   1     -15.323 203.586 118.178  0.00  0.00    +0.033 A 
ATOM     11  C   UNL A   1     -14.824 204.068 119.396  0.00  0.00    +0.024 A 
ATOM     12  C   UNL A   1     -13.483 204.488 119.510  0.00  0.00    +0.013 A 
BRANCH  10  13
ATOM     13  N   UNL A   1     -16.689 203.230 118.094  0.00  0.00    -0.286 N 
ATOM     14  C   UNL A   1     -17.205 201.942 118.057  0.00  0.00    +0.214 C 
ATOM     15  O   UNL A   1     -16.567 200.893 118.084  0.00  0.00    -0.276 OA
ATOM     16  C   UNL A   1     -18.708 201.890 117.962  0.00  0.00    +0.109 C 
ATOM     17  H   UNL A   1     -17.346 203.996 118.027  0.00  0.00    +0.155 HD
ENDBRANCH  10  13
ENDBRANCH   3   7
BRANCH   6  18
ATOM     18  S   UNL A   1      -8.403 207.521 118.121  0.00  0.00    -0.077 S 
BRANCH  18  19
ATOM     19  C   UNL A   1      -7.864 207.243 116.411  0.00  0.00    +0.173 C 
BRANCH  19  20
ATOM     20  C   UNL A   1      -9.041 207.363 115.459  0.00  0.00    +0.228 C 
ATOM     21  O   UNL A   1      -9.656 208.422 115.352  0.00  0.00    -0.275 OA
ATOM     22  N   UNL A   1      -9.349 206.176 114.809  0.00  0.00    -0.285 N 
ATOM     23  H   UNL A   1      -8.897 205.332 115.154  0.00  0.00    +0.155 HD
BRANCH  22  24
ATOM     24  C   UNL A   1     -10.395 205.989 113.881  0.00  0.00    +0.033 A 
ATOM     25  C   UNL A   1     -10.413 206.566 112.609  0.00  0.00    +0.024 A 
ATOM     26  C   UNL A   1     -11.515 206.394 111.762  0.00  0.00    +0.017 A 
ATOM     27  C   UNL A   1     -12.613 205.635 112.175  0.00  0.00    +0.059 A 
ATOM     28  C   UNL A   1     -12.577 205.024 113.435  0.00  0.00    +0.017 A 
ATOM     29  C   UNL A   1     -11.471 205.186 114.275  0.00  0.00    +0.024 A 
BRANCH  27  30
ATOM     30  C   UNL A   1     -13.782 205.525 111.261  0.00  0.00    +0.339 C 
ATOM     31  O   UNL A   1     -13.917 206.191 110.247  0.00  0.00    -0.245 OA
BRANCH  30  32
ATOM     32  O   UNL A   1     -14.659 204.604 111.731  0.00  0.00    -0.465 OA
ATOM     33  C   UNL A   1     -15.950 205.129 112.043  0.00  0.00    +0.280 C 
ENDBRANCH  30  32
ENDBRANCH  27  30
ENDBRANCH  22  24
ENDBRANCH  19  20
ENDBRANCH  18  19
ENDBRANCH   6  18
TORSDOF 8
ENDMDL
MODEL 2
REMARK minimizedAffinity -7.5729351
REMARK minimizedRMSD -1
REMARK  Name = *****
REMARK  11 active torsions:
REMARK  status: ('A' for Active; 'I' for Inactive)
REMARK    1  A    between atoms: N_1  and  C_2
REMARK    2  A    between atoms: C_3  and  C_22
REMARK    3  A    between atoms: C_6  and  S_7
REMARK    4  A    between atoms: S_7  and  C_8
REMARK    5  A    between atoms: C_8  and  C_9
REMARK    6  A    between atoms: N_11  and  C_12
REMARK    7  A    between atoms: C_15  and  C_18
REMARK    8  A    between atoms: C_18  and  O_20
REMARK    9  A    between atoms: O_20  and  C_21
REMARK   10  A    between atoms: C_25  and  N_28
REMARK   11  A    between atoms: C_29  and  C_31
REMARK                            x       y       z     vdW  Elec       q    Type
REMARK                         _______ _______ _______ _____ _____    ______ ____
ROOT
ATOM      1  N   UNL A   1     -17.906 202.241 119.359  0.00  0.00    -0.305 N 
ATOM      2  C   UNL A   1     -17.039 202.247 120.511  0.00  0.00    +0.153 C 
ATOM      3  C   UNL A   1     -19.290 202.192 119.318  0.00  0.00    +0.165 A 
ATOM      4  N   UNL A   1     -19.657 202.182 118.046  0.00  0.00    -0.128 NA
ATOM      5  N   UNL A   1     -18.535 202.302 117.257  0.00  0.00    -0.122 NA
ATOM      6  C   UNL A   1     -17.496 202.318 118.055  0.00  0.00    +0.192 A 
ENDROOT
BRANCH   3   7
ATOM      7  C   UNL A   1     -20.200 202.177 120.469  0.00  0.00    +0.019 A 
ATOM      8  C   UNL A   1     -20.814 203.353 120.906  0.00  0.00    +0.013 A 
ATOM      9  C   UNL A   1     -21.619 203.375 122.046  0.00  0.00    +0.024 A 
ATOM     10  C   UNL A   1     -21.882 202.209 122.759  0.00  0.00    +0.033 A 
ATOM     11  C   UNL A   1     -21.340 201.006 122.284  0.00  0.00    +0.024 A 
ATOM     12  C   UNL A   1     -20.503 200.990 121.151  0.00  0.00    +0.013 A 
BRANCH  10  13
ATOM     13  N   UNL A   1     -22.669 202.186 123.934  0.00  0.00    -0.286 N 
ATOM     14  C   UNL A   1     -23.994 201.784 124.030  0.00  0.00    +0.214 C 
ATOM     15  O   UNL A   1     -24.711 201.385 123.117  0.00  0.00    -0.276 OA
ATOM     16  C   UNL A   1     -24.559 201.880 125.424  0.00  0.00    +0.109 C 
ATOM     17  H   UNL A   1     -22.223 202.525 124.776  0.00  0.00    +0.155 HD
ENDBRANCH  10  13
ENDBRANCH   3   7
BRANCH   6  18
ATOM     18  S   UNL A   1     -15.843 202.467 117.577  0.00  0.00    -0.077 S 
BRANCH  18  19
ATOM     19  C   UNL A   1     -15.865 204.066 116.721  0.00  0.00    +0.173 C 
BRANCH  19  20
ATOM     20  C   UNL A   1     -14.496 204.375 116.140  0.00  0.00    +0.228 C 
ATOM     21  O   UNL A   1     -13.473 204.008 116.714  0.00  0.00    -0.275 OA
ATOM     22  N   UNL A   1     -14.546 205.132 114.977  0.00  0.00    -0.285 N 
ATOM     23  H   UNL A   1     -15.445 205.545 114.737  0.00  0.00    +0.155 HD
BRANCH  22  24
ATOM     24  C   UNL A   1     -13.435 205.575 114.230  0.00  0.00    +0.033 A 
ATOM     25  C   UNL A   1     -12.701 206.722 114.543  0.00  0.00    +0.024 A 
ATOM     26  C   UNL A   1     -11.649 207.143 113.720  0.00  0.00    +0.017 A 
ATOM     27  C   UNL A   1     -11.313 206.417 112.574  0.00  0.00    +0.059 A 
ATOM     28  C   UNL A   1     -12.025 205.246 112.284  0.00  0.00    +0.017 A 
ATOM     29  C   UNL A   1     -13.066 204.820 113.113  0.00  0.00    +0.024 A 
BRANCH  27  30
ATOM     30  C   UNL A   1     -10.223 206.933 111.702  0.00  0.00    +0.339 C 
ATOM     31  O   UNL A   1     -10.265 206.923 110.483  0.00  0.00    -0.245 OA
BRANCH  30  32
ATOM     32  O   UNL A   1      -9.195 207.389 112.460  0.00  0.00    -0.465 OA
ATOM     33  C   UNL A   1      -7.901 207.062 111.950  0.00  0.00    +0.280 C 
ENDBRANCH  30  32
ENDBRANCH  27  30
ENDBRANCH  22  24
ENDBRANCH  19  20
ENDBRANCH  18  19
ENDBRANCH   6  18
TORSDOF 8
ENDMDL
MODEL 3
REMARK minimizedAffinity -7.47451305
REMARK minimizedRMSD -1
REMARK  Name = *****
REMARK  11 active torsions:
REMARK  status: ('A' for Active; 'I' for Inactive)
REMARK    1  A    between atoms: N_1  and  C_2
REMARK    2  A    between atoms: C_3  and  C_22
REMARK    3  A    between atoms: C_6  and  S_7
REMARK    4  A    between atoms: S_7  and  C_8
REMARK    5  A    between atoms: C_8  and  C_9
REMARK    6  A    between atoms: N_11  and  C_12
REMARK    7  A    between atoms: C_15  and  C_18
REMARK    8  A    between atoms: C_18  and  O_20
REMARK    9  A    between atoms: O_20  and  C_21
REMARK   10  A    between atoms: C_25  and  N_28
REMARK   11  A    between atoms: C_29  and  C_31
REMARK                            x       y       z     vdW  Elec       q    Type
REMARK                         _______ _______ _______ _____ _____    ______ ____
ROOT
ATOM      1  N   UNL A   1     -10.497 206.029 117.949  0.00  0.00    -0.305 N 
ATOM      2  C   UNL A   1      -9.789 204.874 118.443  0.00  0.00    +0.153 C 
ATOM      3  C   UNL A   1     -11.843 206.154 117.644  0.00  0.00    +0.165 A 
ATOM      4  N   UNL A   1     -12.044 207.385 117.202  0.00  0.00    -0.128 NA
ATOM      5  N   UNL A   1     -10.864 208.089 117.287  0.00  0.00    -0.122 NA
ATOM      6  C   UNL A   1      -9.946 207.260 117.719  0.00  0.00    +0.192 A 
ENDROOT
BRANCH   3   7
ATOM      7  C   UNL A   1     -12.875 205.123 117.801  0.00  0.00    +0.019 A 
ATOM      8  C   UNL A   1     -13.290 204.359 116.707  0.00  0.00    +0.013 A 
ATOM      9  C   UNL A   1     -14.326 203.431 116.818  0.00  0.00    +0.024 A 
ATOM     10  C   UNL A   1     -14.948 203.195 118.040  0.00  0.00    +0.033 A 
ATOM     11  C   UNL A   1     -14.486 203.894 119.165  0.00  0.00    +0.024 A 
ATOM     12  C   UNL A   1     -13.460 204.853 119.046  0.00  0.00    +0.013 A 
BRANCH  10  13
ATOM     13  N   UNL A   1     -16.019 202.284 118.195  0.00  0.00    -0.286 N 
ATOM     14  C   UNL A   1     -15.973 200.914 117.978  0.00  0.00    +0.214 C 
ATOM     15  O   UNL A   1     -15.003 200.259 117.610  0.00  0.00    -0.276 OA
ATOM     16  C   UNL A   1     -17.285 200.215 118.226  0.00  0.00    +0.109 C 
ATOM     17  H   UNL A   1     -16.909 202.684 118.465  0.00  0.00    +0.155 HD
ENDBRANCH  10  13
ENDBRANCH   3   7
BRANCH   6  18
ATOM     18  S   UNL A   1      -8.286 207.639 118.015  0.00  0.00    -0.077 S 
BRANCH  18  19
ATOM     19  C   UNL A   1      -7.529 207.172 116.434  0.00  0.00    +0.173 C 
BRANCH  19  20
ATOM     20  C   UNL A   1      -8.494 207.426 115.289  0.00  0.00    +0.228 C 
ATOM     21  O   UNL A   1      -8.701 208.569 114.885  0.00  0.00    -0.275 OA
ATOM     22  N   UNL A   1      -9.119 206.276 114.827  0.00  0.00    -0.285 N 
ATOM     23  H   UNL A   1      -9.016 205.437 115.394  0.00  0.00    +0.155 HD
BRANCH  22  24
ATOM     24  C   UNL A   1     -10.068 206.213 113.786  0.00  0.00    +0.033 A 
ATOM     25  C   UNL A   1      -9.966 206.946 112.601  0.00  0.00    +0.024 A 
ATOM     26  C   UNL A   1     -10.979 206.888 111.635  0.00  0.00    +0.017 A 
ATOM     27  C   UNL A   1     -12.106 206.088 111.839  0.00  0.00    +0.059 A 
ATOM     28  C   UNL A   1     -12.188 205.323 113.010  0.00  0.00    +0.017 A 
ATOM     29  C   UNL A   1     -11.171 205.372 113.967  0.00  0.00    +0.024 A 
BRANCH  27  30
ATOM     30  C   UNL A   1     -13.179 206.100 110.809  0.00  0.00    +0.339 C 
ATOM     31  O   UNL A   1     -13.145 206.785 109.800  0.00  0.00    -0.245 OA
BRANCH  30  32
ATOM     32  O   UNL A   1     -14.183 205.263 111.169  0.00  0.00    -0.465 OA
ATOM     33  C   UNL A   1     -15.457 205.896 111.298  0.00  0.00    +0.280 C 
ENDBRANCH  30  32
ENDBRANCH  27  30
ENDBRANCH  22  24
ENDBRANCH  19  20
ENDBRANCH  18  19
ENDBRANCH   6  18
TORSDOF 8
ENDMDL
MODEL 4
REMARK minimizedAffinity -7.46811485
REMARK minimizedRMSD -1
REMARK  Name = *****
REMARK  11 active torsions:
REMARK  status: ('A' for Active; 'I' for Inactive)
REMARK    1  A    between atoms: N_1  and  C_2
REMARK    2  A    between atoms: C_3  and  C_22
REMARK    3  A    between atoms: C_6  and  S_7
REMARK    4  A    between atoms: S_7  and  C_8
REMARK    5  A    between atoms: C_8  and  C_9
REMARK    6  A    between atoms: N_11  and  C_12
REMARK    7  A    between atoms: C_15  and  C_18
REMARK    8  A    between atoms: C_18  and  O_20
REMARK    9  A    between atoms: O_20  and  C_21
REMARK   10  A    between atoms: C_25  and  N_28
REMARK   11  A    between atoms: C_29  and  C_31
REMARK                            x       y       z     vdW  Elec       q    Type
REMARK                         _______ _______ _______ _____ _____    ______ ____
ROOT
ATOM      1  N   UNL A   1     -17.282 202.725 119.398  0.00  0.00    -0.305 N 
ATOM      2  C   UNL A   1     -16.272 203.208 120.307  0.00  0.00    +0.153 C 
ATOM      3  C   UNL A   1     -18.642 202.576 119.617  0.00  0.00    +0.165 A 
ATOM      4  N   UNL A   1     -19.176 202.077 118.513  0.00  0.00    -0.128 NA
ATOM      5  N   UNL A   1     -18.196 201.970 117.551  0.00  0.00    -0.122 NA
ATOM      6  C   UNL A   1     -17.068 202.345 118.101  0.00  0.00    +0.192 A 
ENDROOT
BRANCH   3   7
ATOM      7  C   UNL A   1     -19.377 202.926 120.838  0.00  0.00    +0.019 A 
ATOM      8  C   UNL A   1     -20.261 204.007 120.850  0.00  0.00    +0.013 A 
ATOM      9  C   UNL A   1     -20.908 204.405 122.021  0.00  0.00    +0.024 A 
ATOM     10  C   UNL A   1     -20.734 203.703 123.210  0.00  0.00    +0.033 A 
ATOM     11  C   UNL A   1     -19.914 202.565 123.193  0.00  0.00    +0.024 A 
ATOM     12  C   UNL A   1     -19.238 202.181 122.017  0.00  0.00    +0.013 A 
BRANCH  10  13
ATOM     13  N   UNL A   1     -21.347 204.084 124.426  0.00  0.00    -0.286 N 
ATOM     14  C   UNL A   1     -20.985 205.154 125.232  0.00  0.00    +0.214 C 
ATOM     15  O   UNL A   1     -20.070 205.949 125.033  0.00  0.00    -0.276 OA
ATOM     16  C   UNL A   1     -21.831 205.297 126.470  0.00  0.00    +0.109 C 
ATOM     17  H   UNL A   1     -22.105 203.496 124.746  0.00  0.00    +0.155 HD
ENDBRANCH  10  13
ENDBRANCH   3   7
BRANCH   6  18
ATOM     18  S   UNL A   1     -15.526 202.413 117.324  0.00  0.00    -0.077 S 
BRANCH  18  19
ATOM     19  C   UNL A   1     -15.574 204.070 116.588  0.00  0.00    +0.173 C 
BRANCH  19  20
ATOM     20  C   UNL A   1     -14.234 204.410 115.960  0.00  0.00    +0.228 C 
ATOM     21  O   UNL A   1     -13.184 204.082 116.507  0.00  0.00    -0.275 OA
ATOM     22  N   UNL A   1     -14.343 205.147 114.789  0.00  0.00    -0.285 N 
ATOM     23  H   UNL A   1     -15.261 205.531 114.571  0.00  0.00    +0.155 HD
BRANCH  22  24
ATOM     24  C   UNL A   1     -13.270 205.611 114.000  0.00  0.00    +0.033 A 
ATOM     25  C   UNL A   1     -12.437 206.669 114.373  0.00  0.00    +0.024 A 
ATOM     26  C   UNL A   1     -11.431 207.124 113.512  0.00  0.00    +0.017 A 
ATOM     27  C   UNL A   1     -11.239 206.520 112.267  0.00  0.00    +0.059 A 
ATOM     28  C   UNL A   1     -12.048 205.434 111.911  0.00  0.00    +0.017 A 
ATOM     29  C   UNL A   1     -13.044 204.973 112.777  0.00  0.00    +0.024 A 
BRANCH  27  30
ATOM     30  C   UNL A   1     -10.192 207.072 111.366  0.00  0.00    +0.339 C 
ATOM     31  O   UNL A   1     -10.174 206.900 110.158  0.00  0.00    -0.245 OA
BRANCH  30  32
ATOM     32  O   UNL A   1      -9.273 207.765 112.085  0.00  0.00    -0.465 OA
ATOM     33  C   UNL A   1      -7.997 207.130 112.172  0.00  0.00    +0.280 C 
ENDBRANCH  30  32
ENDBRANCH  27  30
ENDBRANCH  22  24
ENDBRANCH  19  20
ENDBRANCH  18  19
ENDBRANCH   6  18
TORSDOF 8
ENDMDL
MODEL 5
REMARK minimizedAffinity -7.36787796
REMARK minimizedRMSD -1
REMARK  Name = *****
REMARK  11 active torsions:
REMARK  status: ('A' for Active; 'I' for Inactive)
REMARK    1  A    between atoms: N_1  and  C_2
REMARK    2  A    between atoms: C_3  and  C_22
REMARK    3  A    between atoms: C_6  and  S_7
REMARK    4  A    between atoms: S_7  and  C_8
REMARK    5  A    between atoms: C_8  and  C_9
REMARK    6  A    between atoms: N_11  and  C_12
REMARK    7  A    between atoms: C_15  and  C_18
REMARK    8  A    between atoms: C_18  and  O_20
REMARK    9  A    between atoms: O_20  and  C_21
REMARK   10  A    between atoms: C_25  and  N_28
REMARK   11  A    between atoms: C_29  and  C_31
REMARK                            x       y       z     vdW  Elec       q    Type
REMARK                         _______ _______ _______ _____ _____    ______ ____
ROOT
ATOM      1  N   UNL A   1     -12.130 205.980 117.930  0.00  0.00    -0.305 N 
ATOM      2  C   UNL A   1     -12.984 207.142 117.969  0.00  0.00    +0.153 C 
ATOM      3  C   UNL A   1     -12.442 204.667 118.242  0.00  0.00    +0.165 A 
ATOM      4  N   UNL A   1     -11.345 203.943 118.087  0.00  0.00    -0.128 NA
ATOM      5  N   UNL A   1     -10.341 204.752 117.603  0.00  0.00    -0.122 NA
ATOM      6  C   UNL A   1     -10.821 205.969 117.532  0.00  0.00    +0.192 A 
ENDROOT
BRANCH   3   7
ATOM      7  C   UNL A   1     -13.754 204.151 118.651  0.00  0.00    +0.019 A 
ATOM      8  C   UNL A   1     -14.608 203.560 117.717  0.00  0.00    +0.013 A 
ATOM      9  C   UNL A   1     -15.890 203.137 118.069  0.00  0.00    +0.024 A 
ATOM     10  C   UNL A   1     -16.344 203.241 119.380  0.00  0.00    +0.033 A 
ATOM     11  C   UNL A   1     -15.467 203.755 120.346  0.00  0.00    +0.024 A 
ATOM     12  C   UNL A   1     -14.183 204.210 119.984  0.00  0.00    +0.013 A 
BRANCH  10  13
ATOM     13  N   UNL A   1     -17.644 202.850 119.779  0.00  0.00    -0.286 N 
ATOM     14  C   UNL A   1     -18.029 201.588 120.209  0.00  0.00    +0.214 C 
ATOM     15  O   UNL A   1     -17.314 200.595 120.313  0.00  0.00    -0.276 OA
ATOM     16  C   UNL A   1     -19.491 201.484 120.560  0.00  0.00    +0.109 C 
ATOM     17  H   UNL A   1     -18.362 203.559 119.714  0.00  0.00    +0.155 HD
ENDBRANCH  10  13
ENDBRANCH   3   7
BRANCH   6  18
ATOM     18  S   UNL A   1      -9.976 207.369 116.974  0.00  0.00    -0.077 S 
BRANCH  18  19
ATOM     19  C   UNL A   1      -9.657 206.924 115.245  0.00  0.00    +0.173 C 
BRANCH  19  20
ATOM     20  C   UNL A   1     -10.878 206.257 114.635  0.00  0.00    +0.228 C 
ATOM     21  O   UNL A   1     -10.829 205.092 114.247  0.00  0.00    -0.275 OA
ATOM     22  N   UNL A   1     -11.973 207.104 114.525  0.00  0.00    -0.285 N 
ATOM     23  H   UNL A   1     -11.806 208.095 114.685  0.00  0.00    +0.155 HD
BRANCH  22  24
ATOM     24  C   UNL A   1     -13.232 206.762 113.988  0.00  0.00    +0.033 A 
ATOM     25  C   UNL A   1     -13.456 206.532 112.628  0.00  0.00    +0.024 A 
ATOM     26  C   UNL A   1     -14.745 206.262 112.153  0.00  0.00    +0.017 A 
ATOM     27  C   UNL A   1     -15.829 206.212 113.034  0.00  0.00    +0.059 A 
ATOM     28  C   UNL A   1     -15.596 206.403 114.402  0.00  0.00    +0.017 A 
ATOM     29  C   UNL A   1     -14.307 206.659 114.877  0.00  0.00    +0.024 A 
BRANCH  27  30
ATOM     30  C   UNL A   1     -17.187 205.974 112.474  0.00  0.00    +0.339 C 
ATOM     31  O   UNL A   1     -17.950 205.114 112.884  0.00  0.00    -0.245 OA
BRANCH  30  32
ATOM     32  O   UNL A   1     -17.428 206.831 111.451  0.00  0.00    -0.465 OA
ATOM     33  C   UNL A   1     -18.797 207.214 111.318  0.00  0.00    +0.280 C 
ENDBRANCH  30  32
ENDBRANCH  27  30
ENDBRANCH  22  24
ENDBRANCH  19  20
ENDBRANCH  18  19
ENDBRANCH   6  18
TORSDOF 8
ENDMDL
MODEL 6
REMARK minimizedAffinity -7.32153988
REMARK minimizedRMSD -1
REMARK  Name = *****
REMARK  11 active torsions:
REMARK  status: ('A' for Active; 'I' for Inactive)
REMARK    1  A    between atoms: N_1  and  C_2
REMARK    2  A    between atoms: C_3  and  C_22
REMARK    3  A    between atoms: C_6  and  S_7
REMARK    4  A    between atoms: S_7  and  C_8
REMARK    5  A    between atoms: C_8  and  C_9
REMARK    6  A    between atoms: N_11  and  C_12
REMARK    7  A    between atoms: C_15  and  C_18
REMARK    8  A    between atoms: C_18  and  O_20
REMARK    9  A    between atoms: O_20  and  C_21
REMARK   10  A    between atoms: C_25  and  N_28
REMARK   11  A    between atoms: C_29  and  C_31
REMARK                            x       y       z     vdW  Elec       q    Type
REMARK                         _______ _______ _______ _____ _____    ______ ____
ROOT
ATOM      1  N   UNL A   1     -17.035 202.855 119.456  0.00  0.00    -0.305 N 
ATOM      2  C   UNL A   1     -16.417 203.058 120.744  0.00  0.00    +0.153 C 
ATOM      3  C   UNL A   1     -18.363 202.589 119.166  0.00  0.00    +0.165 A 
ATOM      4  N   UNL A   1     -18.470 202.454 117.853  0.00  0.00    -0.128 NA
ATOM      5  N   UNL A   1     -17.245 202.704 117.277  0.00  0.00    -0.122 NA
ATOM      6  C   UNL A   1     -16.395 202.925 118.248  0.00  0.00    +0.192 A 
ENDROOT
BRANCH   3   7
ATOM      7  C   UNL A   1     -19.467 202.495 120.127  0.00  0.00    +0.019 A 
ATOM      8  C   UNL A   1     -20.169 203.637 120.519  0.00  0.00    +0.013 A 
ATOM      9  C   UNL A   1     -21.169 203.580 121.491  0.00  0.00    +0.024 A 
ATOM     10  C   UNL A   1     -21.539 202.369 122.067  0.00  0.00    +0.033 A 
ATOM     11  C   UNL A   1     -20.901 201.202 121.624  0.00  0.00    +0.024 A 
ATOM     12  C   UNL A   1     -19.871 201.264 120.664  0.00  0.00    +0.013 A 
BRANCH  10  13
ATOM     13  N   UNL A   1     -22.527 202.266 123.074  0.00  0.00    -0.286 N 
ATOM     14  C   UNL A   1     -22.313 202.287 124.445  0.00  0.00    +0.214 C 
ATOM     15  O   UNL A   1     -21.233 202.393 125.020  0.00  0.00    -0.276 OA
ATOM     16  C   UNL A   1     -23.572 202.150 125.260  0.00  0.00    +0.109 C 
ATOM     17  H   UNL A   1     -23.478 202.136 122.753  0.00  0.00    +0.155 HD
ENDBRANCH  10  13
ENDBRANCH   3   7
BRANCH   6  18
ATOM     18  S   UNL A   1     -14.718 203.303 118.071  0.00  0.00    -0.077 S 
BRANCH  18  19
ATOM     19  C   UNL A   1     -14.748 204.363 116.600  0.00  0.00    +0.173 C 
BRANCH  19  20
ATOM     20  C   UNL A   1     -13.359 204.902 116.307  0.00  0.00    +0.228 C 
ATOM     21  O   UNL A   1     -12.368 204.401 116.833  0.00  0.00    -0.275 OA
ATOM     22  N   UNL A   1     -13.360 206.006 115.464  0.00  0.00    -0.285 N 
ATOM     23  H   UNL A   1     -14.261 206.442 115.279  0.00  0.00    +0.155 HD
BRANCH  22  24
ATOM     24  C   UNL A   1     -12.222 206.717 115.032  0.00  0.00    +0.033 A 
ATOM     25  C   UNL A   1     -11.639 206.553 113.773  0.00  0.00    +0.024 A 
ATOM     26  C   UNL A   1     -10.468 207.243 113.432  0.00  0.00    +0.017 A 
ATOM     27  C   UNL A   1      -9.867 208.111 114.347  0.00  0.00    +0.059 A 
ATOM     28  C   UNL A   1     -10.475 208.305 115.594  0.00  0.00    +0.017 A 
ATOM     29  C   UNL A   1     -11.650 207.626 115.928  0.00  0.00    +0.024 A 
BRANCH  27  30
ATOM     30  C   UNL A   1      -8.596 208.780 113.958  0.00  0.00    +0.339 C 
ATOM     31  O   UNL A   1      -8.027 208.592 112.895  0.00  0.00    -0.245 OA
BRANCH  30  32
ATOM     32  O   UNL A   1      -8.173 209.597 114.954  0.00  0.00    -0.465 OA
ATOM     33  C   UNL A   1      -6.813 209.395 115.341  0.00  0.00    +0.280 C 
ENDBRANCH  30  32
ENDBRANCH  27  30
ENDBRANCH  22  24
ENDBRANCH  19  20
ENDBRANCH  18  19
ENDBRANCH   6  18
TORSDOF 8
ENDMDL
MODEL 7
REMARK minimizedAffinity -7.30259752
REMARK minimizedRMSD -1
REMARK  Name = *****
REMARK  11 active torsions:
REMARK  status: ('A' for Active; 'I' for Inactive)
REMARK    1  A    between atoms: N_1  and  C_2
REMARK    2  A    between atoms: C_3  and  C_22
REMARK    3  A    between atoms: C_6  and  S_7
REMARK    4  A    between atoms: S_7  and  C_8
REMARK    5  A    between atoms: C_8  and  C_9
REMARK    6  A    between atoms: N_11  and  C_12
REMARK    7  A    between atoms: C_15  and  C_18
REMARK    8  A    between atoms: C_18  and  O_20
REMARK    9  A    between atoms: O_20  and  C_21
REMARK   10  A    between atoms: C_25  and  N_28
REMARK   11  A    between atoms: C_29  and  C_31
REMARK                            x       y       z     vdW  Elec       q    Type
REMARK                         _______ _______ _______ _____ _____    ______ ____
ROOT
ATOM      1  N   UNL A   1     -12.207 205.351 118.250  0.00  0.00    -0.305 N 
ATOM      2  C   UNL A   1     -11.308 204.233 118.395  0.00  0.00    +0.153 C 
ATOM      3  C   UNL A   1     -12.164 206.381 117.325  0.00  0.00    +0.165 A 
ATOM      4  N   UNL A   1     -13.174 207.197 117.582  0.00  0.00    -0.128 NA
ATOM      5  N   UNL A   1     -13.921 206.672 118.613  0.00  0.00    -0.122 NA
ATOM      6  C   UNL A   1     -13.320 205.579 119.013  0.00  0.00    +0.192 A 
ENDROOT
BRANCH   3   7
ATOM      7  C   UNL A   1     -11.194 206.540 116.235  0.00  0.00    +0.019 A 
ATOM      8  C   UNL A   1     -10.397 207.683 116.154  0.00  0.00    +0.013 A 
ATOM      9  C   UNL A   1      -9.527 207.890 115.082  0.00  0.00    +0.024 A 
ATOM     10  C   UNL A   1      -9.384 206.934 114.081  0.00  0.00    +0.033 A 
ATOM     11  C   UNL A   1     -10.116 205.742 114.194  0.00  0.00    +0.024 A 
ATOM     12  C   UNL A   1     -11.017 205.548 115.260  0.00  0.00    +0.013 A 
BRANCH  10  13
ATOM     13  N   UNL A   1      -8.535 207.110 112.964  0.00  0.00    -0.286 N 
ATOM     14  C   UNL A   1      -7.156 206.961 112.946  0.00  0.00    +0.214 C 
ATOM     15  O   UNL A   1      -6.435 206.658 113.892  0.00  0.00    -0.276 OA
ATOM     16  C   UNL A   1      -6.533 207.223 111.598  0.00  0.00    +0.109 C 
ATOM     17  H   UNL A   1      -8.984 207.400 112.105  0.00  0.00    +0.155 HD
ENDBRANCH  10  13
ENDBRANCH   3   7
BRANCH   6  18
ATOM     18  S   UNL A   1     -13.850 204.526 120.276  0.00  0.00    -0.077 S 
BRANCH  18  19
ATOM     19  C   UNL A   1     -15.200 203.638 119.453  0.00  0.00    +0.173 C 
BRANCH  19  20
ATOM     20  C   UNL A   1     -14.932 203.531 117.962  0.00  0.00    +0.228 C 
ATOM     21  O   UNL A   1     -14.291 202.586 117.507  0.00  0.00    -0.275 OA
ATOM     22  N   UNL A   1     -15.424 204.604 117.233  0.00  0.00    -0.285 N 
ATOM     23  H   UNL A   1     -15.740 205.414 117.763  0.00  0.00    +0.155 HD
BRANCH  22  24
ATOM     24  C   UNL A   1     -15.311 204.777 115.837  0.00  0.00    +0.033 A 
ATOM     25  C   UNL A   1     -14.839 203.788 114.971  0.00  0.00    +0.024 A 
ATOM     26  C   UNL A   1     -14.689 204.048 113.604  0.00  0.00    +0.017 A 
ATOM     27  C   UNL A   1     -15.015 205.302 113.082  0.00  0.00    +0.059 A 
ATOM     28  C   UNL A   1     -15.526 206.280 113.945  0.00  0.00    +0.017 A 
ATOM     29  C   UNL A   1     -15.688 206.015 115.308  0.00  0.00    +0.024 A 
BRANCH  27  30
ATOM     30  C   UNL A   1     -14.789 205.547 111.632  0.00  0.00    +0.339 C 
ATOM     31  O   UNL A   1     -15.618 206.048 110.889  0.00  0.00    -0.245 OA
BRANCH  30  32
ATOM     32  O   UNL A   1     -13.553 205.120 111.273  0.00  0.00    -0.465 OA
ATOM     33  C   UNL A   1     -12.534 206.116 111.377  0.00  0.00    +0.280 C 
ENDBRANCH  30  32
ENDBRANCH  27  30
ENDBRANCH  22  24
ENDBRANCH  19  20
ENDBRANCH  18  19
ENDBRANCH   6  18
TORSDOF 8
ENDMDL
MODEL 8
REMARK minimizedAffinity -7.25164175
REMARK minimizedRMSD -1
REMARK  Name = *****
REMARK  11 active torsions:
REMARK  status: ('A' for Active; 'I' for Inactive)
REMARK    1  A    between atoms: N_1  and  C_2
REMARK    2  A    between atoms: C_3  and  C_22
REMARK    3  A    between atoms: C_6  and  S_7
REMARK    4  A    between atoms: S_7  and  C_8
REMARK    5  A    between atoms: C_8  and  C_9
REMARK    6  A    between atoms: N_11  and  C_12
REMARK    7  A    between atoms: C_15  and  C_18
REMARK    8  A    between atoms: C_18  and  O_20
REMARK    9  A    between atoms: O_20  and  C_21
REMARK   10  A    between atoms: C_25  and  N_28
REMARK   11  A    between atoms: C_29  and  C_31
REMARK                            x       y       z     vdW  Elec       q    Type
REMARK                         _______ _______ _______ _____ _____    ______ ____
ROOT
ATOM      1  N   UNL A   1     -14.778 205.815 115.290  0.00  0.00    -0.305 N 
ATOM      2  C   UNL A   1     -14.455 204.482 115.735  0.00  0.00    +0.153 C 
ATOM      3  C   UNL A   1     -14.340 207.027 115.798  0.00  0.00    +0.165 A 
ATOM      4  N   UNL A   1     -14.912 207.991 115.094  0.00  0.00    -0.128 NA
ATOM      5  N   UNL A   1     -15.658 207.424 114.084  0.00  0.00    -0.122 NA
ATOM      6  C   UNL A   1     -15.581 206.125 114.225  0.00  0.00    +0.192 A 
ENDROOT
BRANCH   3   7
ATOM      7  C   UNL A   1     -13.393 207.223 116.902  0.00  0.00    +0.019 A 
ATOM      8  C   UNL A   1     -12.067 207.578 116.647  0.00  0.00    +0.013 A 
ATOM      9  C   UNL A   1     -11.132 207.690 117.677  0.00  0.00    +0.024 A 
ATOM     10  C   UNL A   1     -11.504 207.504 119.005  0.00  0.00    +0.033 A 
ATOM     11  C   UNL A   1     -12.850 207.229 119.284  0.00  0.00    +0.024 A 
ATOM     12  C   UNL A   1     -13.788 207.086 118.240  0.00  0.00    +0.013 A 
BRANCH  10  13
ATOM     13  N   UNL A   1     -10.587 207.581 120.079  0.00  0.00    -0.286 N 
ATOM     14  C   UNL A   1      -9.790 206.552 120.559  0.00  0.00    +0.214 C 
ATOM     15  O   UNL A   1      -9.746 205.398 120.140  0.00  0.00    -0.276 OA
ATOM     16  C   UNL A   1      -8.918 206.948 121.722  0.00  0.00    +0.109 C 
ATOM     17  H   UNL A   1     -10.535 208.472 120.557  0.00  0.00    +0.155 HD
ENDBRANCH  10  13
ENDBRANCH   3   7
BRANCH   6  18
ATOM     18  S   UNL A   1     -16.326 204.941 113.210  0.00  0.00    -0.077 S 
BRANCH  18  19
ATOM     19  C   UNL A   1     -15.450 205.217 111.646  0.00  0.00    +0.173 C 
BRANCH  19  20
ATOM     20  C   UNL A   1     -13.949 205.117 111.854  0.00  0.00    +0.228 C 
ATOM     21  O   UNL A   1     -13.420 204.034 112.095  0.00  0.00    -0.275 OA
ATOM     22  N   UNL A   1     -13.300 206.343 111.799  0.00  0.00    -0.285 N 
ATOM     23  H   UNL A   1     -13.887 207.174 111.808  0.00  0.00    +0.155 HD
BRANCH  22  24
ATOM     24  C   UNL A   1     -11.916 206.554 111.968  0.00  0.00    +0.033 A 
ATOM     25  C   UNL A   1     -11.304 206.708 113.215  0.00  0.00    +0.024 A 
ATOM     26  C   UNL A   1      -9.933 206.982 113.309  0.00  0.00    +0.017 A 
ATOM     27  C   UNL A   1      -9.155 207.100 112.154  0.00  0.00    +0.059 A 
ATOM     28  C   UNL A   1      -9.762 206.905 110.908  0.00  0.00    +0.017 A 
ATOM     29  C   UNL A   1     -11.127 206.619 110.816  0.00  0.00    +0.024 A 
BRANCH  27  30
ATOM     30  C   UNL A   1      -7.715 207.444 112.304  0.00  0.00    +0.339 C 
ATOM     31  O   UNL A   1      -6.816 206.889 111.691  0.00  0.00    -0.245 OA
BRANCH  30  32
ATOM     32  O   UNL A   1      -7.562 208.433 113.218  0.00  0.00    -0.465 OA
ATOM     33  C   UNL A   1      -6.414 208.286 114.055  0.00  0.00    +0.280 C 
ENDBRANCH  30  32
ENDBRANCH  27  30
ENDBRANCH  22  24
ENDBRANCH  19  20
ENDBRANCH  18  19
ENDBRANCH   6  18
TORSDOF 8
ENDMDL
MODEL 9
REMARK minimizedAffinity -7.18718719
REMARK minimizedRMSD -1
REMARK  Name = *****
REMARK  11 active torsions:
REMARK  status: ('A' for Active; 'I' for Inactive)
REMARK    1  A    between atoms: N_1  and  C_2
REMARK    2  A    between atoms: C_3  and  C_22
REMARK    3  A    between atoms: C_6  and  S_7
REMARK    4  A    between atoms: S_7  and  C_8
REMARK    5  A    between atoms: C_8  and  C_9
REMARK    6  A    between atoms: N_11  and  C_12
REMARK    7  A    between atoms: C_15  and  C_18
REMARK    8  A    between atoms: C_18  and  O_20
REMARK    9  A    between atoms: O_20  and  C_21
REMARK   10  A    between atoms: C_25  and  N_28
REMARK   11  A    between atoms: C_29  and  C_31
REMARK                            x       y       z     vdW  Elec       q    Type
REMARK                         _______ _______ _______ _____ _____    ______ ____
ROOT
ATOM      1  N   UNL A   1     -10.261 206.616 115.771  0.00  0.00    -0.305 N 
ATOM      2  C   UNL A   1     -10.269 205.179 115.895  0.00  0.00    +0.153 C 
ATOM      3  C   UNL A   1     -11.038 207.546 116.443  0.00  0.00    +0.165 A 
ATOM      4  N   UNL A   1     -10.708 208.747 115.994  0.00  0.00    -0.128 NA
ATOM      5  N   UNL A   1      -9.674 208.619 115.094  0.00  0.00    -0.122 NA
ATOM      6  C   UNL A   1      -9.430 207.339 114.959  0.00  0.00    +0.192 A 
ENDROOT
BRANCH   3   7
ATOM      7  C   UNL A   1     -12.033 207.267 117.485  0.00  0.00    +0.019 A 
ATOM      8  C   UNL A   1     -13.310 206.815 117.146  0.00  0.00    +0.013 A 
ATOM      9  C   UNL A   1     -14.295 206.622 118.115  0.00  0.00    +0.024 A 
ATOM     10  C   UNL A   1     -14.021 206.822 119.465  0.00  0.00    +0.033 A 
ATOM     11  C   UNL A   1     -12.719 207.195 119.828  0.00  0.00    +0.024 A 
ATOM     12  C   UNL A   1     -11.733 207.420 118.846  0.00  0.00    +0.013 A 
BRANCH  10  13
ATOM     13  N   UNL A   1     -14.994 206.664 120.479  0.00  0.00    -0.286 N 
ATOM     14  C   UNL A   1     -15.051 205.639 121.413  0.00  0.00    +0.214 C 
ATOM     15  O   UNL A   1     -14.276 204.692 121.516  0.00  0.00    -0.276 OA
ATOM     16  C   UNL A   1     -16.215 205.746 122.364  0.00  0.00    +0.109 C 
ATOM     17  H   UNL A   1     -15.732 207.356 120.501  0.00  0.00    +0.155 HD
ENDBRANCH  10  13
ENDBRANCH   3   7
BRANCH   6  18
ATOM     18  S   UNL A   1      -8.216 206.631 113.955  0.00  0.00    -0.077 S 
BRANCH  18  19
ATOM     19  C   UNL A   1      -8.534 207.462 112.375  0.00  0.00    +0.173 C 
BRANCH  19  20
ATOM     20  C   UNL A   1     -10.024 207.486 112.080  0.00  0.00    +0.228 C 
ATOM     21  O   UNL A   1     -10.532 208.441 111.497  0.00  0.00    -0.275 OA
ATOM     22  N   UNL A   1     -10.704 206.383 112.577  0.00  0.00    -0.285 N 
ATOM     23  H   UNL A   1     -10.196 205.782 113.223  0.00  0.00    +0.155 HD
BRANCH  22  24
ATOM     24  C   UNL A   1     -12.090 206.146 112.463  0.00  0.00    +0.033 A 
ATOM     25  C   UNL A   1     -12.676 205.494 111.375  0.00  0.00    +0.024 A 
ATOM     26  C   UNL A   1     -14.067 205.351 111.293  0.00  0.00    +0.017 A 
ATOM     27  C   UNL A   1     -14.891 205.854 112.303  0.00  0.00    +0.059 A 
ATOM     28  C   UNL A   1     -14.299 206.472 113.412  0.00  0.00    +0.017 A 
ATOM     29  C   UNL A   1     -12.910 206.603 113.499  0.00  0.00    +0.024 A 
BRANCH  27  30
ATOM     30  C   UNL A   1     -16.364 205.724 112.145  0.00  0.00    +0.339 C 
ATOM     31  O   UNL A   1     -17.017 204.793 112.589  0.00  0.00    -0.245 OA
BRANCH  30  32
ATOM     32  O   UNL A   1     -16.853 206.769 111.431  0.00  0.00    -0.465 OA
ATOM     33  C   UNL A   1     -18.265 206.948 111.545  0.00  0.00    +0.280 C 
ENDBRANCH  30  32
ENDBRANCH  27  30
ENDBRANCH  22  24
ENDBRANCH  19  20
ENDBRANCH  18  19
ENDBRANCH   6  18
TORSDOF 8
ENDMDL
