MODEL 1
REMARK minimizedAffinity -7.77569485
REMARK minimizedRMSD -1
REMARK  Name = *****
REMARK  2 active torsions:
REMARK  status: ('A' for Active; 'I' for Inactive)
REMARK    1  A    between atoms: C_5  and  C_8
REMARK    2  A    between atoms: C_14  and  C_16
REMARK                            x       y       z     vdW  Elec       q    Type
REMARK                         _______ _______ _______ _____ _____    ______ ____
ROOT
ATOM      1  C   UNL A   1     -14.818 204.812 114.399  0.00  0.00    +0.249 C 
ATOM      2  O   UNL A   1     -16.004 204.776 114.082  0.00  0.00    -0.270 OA
ATOM      3  N   UNL A   1     -14.263 204.456 115.618  0.00  0.00    -0.265 N 
ATOM      4  C   UNL A   1     -15.017 203.924 116.649  0.00  0.00    +0.147 A 
ATOM      5  N   UNL A   1     -16.333 203.733 116.582  0.00  0.00    -0.158 NA
ATOM      6  N   UNL A   1     -16.670 203.196 117.747  0.00  0.00    -0.280 N 
ATOM      7  C   UNL A   1     -15.614 203.041 118.604  0.00  0.00    +0.041 A 
ATOM      8  C   UNL A   1     -14.516 203.498 117.903  0.00  0.00    +0.068 A 
ATOM      9  H   UNL A   1     -13.272 204.507 115.772  0.00  0.00    +0.157 HD
ATOM     10  H   UNL A   1     -17.643 202.955 117.888  0.00  0.00    +0.189 HD
ENDROOT
BRANCH   1  15
ATOM     11 BR   UNL A   1     -10.688 206.593 110.181  0.00  0.00    -0.050 Br
ATOM     12  C   UNL A   1     -11.972 206.039 111.453  0.00  0.00    +0.018 A 
ATOM     13  C   UNL A   1     -13.322 205.983 111.098  0.00  0.00    +0.016 A 
ATOM     14  C   UNL A   1     -14.279 205.593 112.041  0.00  0.00    +0.014 A 
ATOM     15  C   UNL A   1     -13.878 205.260 113.338  0.00  0.00    +0.037 A 
ATOM     16  C   UNL A   1     -12.513 205.303 113.674  0.00  0.00    +0.014 A 
ATOM     17  C   UNL A   1     -11.561 205.696 112.737  0.00  0.00    +0.016 A 
ENDBRANCH   1  15
BRANCH   7  18
ATOM     18  C   UNL A   1     -15.776 202.478 119.981  0.00  0.00    +0.037 C 
ATOM     19  C   UNL A   1     -17.256 202.484 120.397  0.00  0.00    +0.010 C 
ATOM     20  C   UNL A   1     -17.456 202.044 121.843  0.00  0.00    +0.001 C 
ATOM     21  C   UNL A   1     -16.602 202.868 122.799  0.00  0.00    +0.000 C 
ATOM     22  C   UNL A   1     -15.127 202.793 122.424  0.00  0.00    +0.001 C 
ATOM     23  C   UNL A   1     -14.895 203.242 120.985  0.00  0.00    +0.010 C 
ENDBRANCH   7  18
TORSDOF 2
ENDMDL
MODEL 2
REMARK minimizedAffinity -7.76571417
REMARK minimizedRMSD -1
REMARK  Name = *****
REMARK  2 active torsions:
REMARK  status: ('A' for Active; 'I' for Inactive)
REMARK    1  A    between atoms: C_5  and  C_8
REMARK    2  A    between atoms: C_14  and  C_16
REMARK                            x       y       z     vdW  Elec       q    Type
REMARK                         _______ _______ _______ _____ _____    ______ ____
ROOT
ATOM      1  C   UNL A   1     -12.834 205.751 115.718  0.00  0.00    +0.249 C 
ATOM      2  O   UNL A   1     -12.751 206.679 116.519  0.00  0.00    -0.270 OA
ATOM      3  N   UNL A   1     -13.435 204.519 115.919  0.00  0.00    -0.265 N 
ATOM      4  C   UNL A   1     -14.106 204.203 117.087  0.00  0.00    +0.147 A 
ATOM      5  N   UNL A   1     -14.214 205.029 118.126  0.00  0.00    -0.158 NA
ATOM      6  N   UNL A   1     -14.936 204.371 119.024  0.00  0.00    -0.280 N 
ATOM      7  C   UNL A   1     -15.299 203.114 118.620  0.00  0.00    +0.041 A 
ATOM      8  C   UNL A   1     -14.779 202.985 117.348  0.00  0.00    +0.068 A 
ATOM      9  H   UNL A   1     -13.464 203.831 115.189  0.00  0.00    +0.157 HD
ATOM     10  H   UNL A   1     -15.148 204.845 119.893  0.00  0.00    +0.189 HD
ENDROOT
BRANCH   1  15
ATOM     11 BR   UNL A   1     -10.611 206.596 110.029  0.00  0.00    -0.050 Br
ATOM     12  C   UNL A   1     -11.286 206.365 111.779  0.00  0.00    +0.018 A 
ATOM     13  C   UNL A   1     -10.846 207.200 112.809  0.00  0.00    +0.016 A 
ATOM     14  C   UNL A   1     -11.328 207.020 114.111  0.00  0.00    +0.014 A 
ATOM     15  C   UNL A   1     -12.250 206.003 114.375  0.00  0.00    +0.037 A 
ATOM     16  C   UNL A   1     -12.697 205.184 113.323  0.00  0.00    +0.014 A 
ATOM     17  C   UNL A   1     -12.214 205.359 112.028  0.00  0.00    +0.016 A 
ENDBRANCH   1  15
BRANCH   7  18
ATOM     18  C   UNL A   1     -16.094 202.193 119.490  0.00  0.00    +0.037 C 
ATOM     19  C   UNL A   1     -16.735 201.075 118.651  0.00  0.00    +0.010 C 
ATOM     20  C   UNL A   1     -17.665 200.190 119.473  0.00  0.00    +0.001 C 
ATOM     21  C   UNL A   1     -18.718 201.016 120.203  0.00  0.00    +0.000 C 
ATOM     22  C   UNL A   1     -18.071 202.071 121.092  0.00  0.00    +0.001 C 
ATOM     23  C   UNL A   1     -17.146 202.981 120.292  0.00  0.00    +0.010 C 
ENDBRANCH   7  18
TORSDOF 2
ENDMDL
MODEL 3
REMARK minimizedAffinity -7.69758224
REMARK minimizedRMSD -1
REMARK  Name = *****
REMARK  2 active torsions:
REMARK  status: ('A' for Active; 'I' for Inactive)
REMARK    1  A    between atoms: C_5  and  C_8
REMARK    2  A    between atoms: C_14  and  C_16
REMARK                            x       y       z     vdW  Elec       q    Type
REMARK                         _______ _______ _______ _____ _____    ______ ____
ROOT
ATOM      1  C   UNL A   1     -13.210 206.237 111.550  0.00  0.00    +0.249 C 
ATOM      2  O   UNL A   1     -12.866 206.044 110.386  0.00  0.00    -0.270 OA
ATOM      3  N   UNL A   1     -12.406 206.624 112.610  0.00  0.00    -0.265 N 
ATOM      4  C   UNL A   1     -11.064 206.920 112.453  0.00  0.00    +0.147 A 
ATOM      5  N   UNL A   1     -10.417 206.835 111.293  0.00  0.00    -0.158 NA
ATOM      6  N   UNL A   1      -9.174 207.215 111.555  0.00  0.00    -0.280 N 
ATOM      7  C   UNL A   1      -8.965 207.534 112.870  0.00  0.00    +0.041 A 
ATOM      8  C   UNL A   1     -10.192 207.363 113.478  0.00  0.00    +0.068 A 
ATOM      9  H   UNL A   1     -12.791 206.773 113.525  0.00  0.00    +0.157 HD
ATOM     10  H   UNL A   1      -8.518 207.237 110.785  0.00  0.00    +0.189 HD
ENDROOT
BRANCH   1  15
ATOM     11 BR   UNL A   1     -19.275 205.777 112.565  0.00  0.00    -0.050 Br
ATOM     12  C   UNL A   1     -17.414 205.889 112.253  0.00  0.00    +0.018 A 
ATOM     13  C   UNL A   1     -16.585 204.823 112.609  0.00  0.00    +0.016 A 
ATOM     14  C   UNL A   1     -15.204 204.908 112.398  0.00  0.00    +0.014 A 
ATOM     15  C   UNL A   1     -14.659 206.064 111.832  0.00  0.00    +0.037 A 
ATOM     16  C   UNL A   1     -15.510 207.121 111.462  0.00  0.00    +0.014 A 
ATOM     17  C   UNL A   1     -16.884 207.038 111.676  0.00  0.00    +0.016 A 
ENDBRANCH   1  15
BRANCH   7  18
ATOM     18  C   UNL A   1      -7.628 207.963 113.387  0.00  0.00    +0.037 C 
ATOM     19  C   UNL A   1      -6.816 206.747 113.865  0.00  0.00    +0.010 C 
ATOM     20  C   UNL A   1      -5.501 207.148 114.523  0.00  0.00    +0.001 C 
ATOM     21  C   UNL A   1      -5.725 208.150 115.650  0.00  0.00    +0.000 C 
ATOM     22  C   UNL A   1      -6.462 209.386 115.149  0.00  0.00    +0.001 C 
ATOM     23  C   UNL A   1      -7.790 209.016 114.498  0.00  0.00    +0.010 C 
ENDBRANCH   7  18
TORSDOF 2
ENDMDL
MODEL 4
REMARK minimizedAffinity -7.66310215
REMARK minimizedRMSD -1
REMARK  Name = *****
REMARK  2 active torsions:
REMARK  status: ('A' for Active; 'I' for Inactive)
REMARK    1  A    between atoms: C_5  and  C_8
REMARK    2  A    between atoms: C_14  and  C_16
REMARK                            x       y       z     vdW  Elec       q    Type
REMARK                         _______ _______ _______ _____ _____    ______ ____
ROOT
ATOM      1  C   UNL A   1     -13.108 205.321 115.685  0.00  0.00    +0.249 C 
ATOM      2  O   UNL A   1     -12.662 206.033 116.582  0.00  0.00    -0.270 OA
ATOM      3  N   UNL A   1     -14.051 204.313 115.803  0.00  0.00    -0.265 N 
ATOM      4  C   UNL A   1     -14.682 204.024 117.000  0.00  0.00    +0.147 A 
ATOM      5  N   UNL A   1     -14.428 204.658 118.143  0.00  0.00    -0.158 NA
ATOM      6  N   UNL A   1     -15.241 204.110 119.036  0.00  0.00    -0.280 N 
ATOM      7  C   UNL A   1     -16.021 203.108 118.525  0.00  0.00    +0.041 A 
ATOM      8  C   UNL A   1     -15.684 203.041 117.187  0.00  0.00    +0.068 A 
ATOM      9  H   UNL A   1     -14.363 203.798 115.000  0.00  0.00    +0.157 HD
ATOM     10  H   UNL A   1     -15.213 204.474 119.981  0.00  0.00    +0.189 HD
ENDROOT
BRANCH   1  15
ATOM     11 BR   UNL A   1     -10.770 206.688 110.145  0.00  0.00    -0.050 Br
ATOM     12  C   UNL A   1     -11.493 206.242 111.834  0.00  0.00    +0.018 A 
ATOM     13  C   UNL A   1     -12.433 205.214 111.937  0.00  0.00    +0.016 A 
ATOM     14  C   UNL A   1     -12.987 204.893 113.182  0.00  0.00    +0.014 A 
ATOM     15  C   UNL A   1     -12.594 205.605 114.320  0.00  0.00    +0.037 A 
ATOM     16  C   UNL A   1     -11.632 206.624 114.201  0.00  0.00    +0.014 A 
ATOM     17  C   UNL A   1     -11.085 206.947 112.961  0.00  0.00    +0.016 A 
ENDBRANCH   1  15
BRANCH   7  18
ATOM     18  C   UNL A   1     -16.990 202.339 119.367  0.00  0.00    +0.037 C 
ATOM     19  C   UNL A   1     -18.402 202.402 118.761  0.00  0.00    +0.010 C 
ATOM     20  C   UNL A   1     -19.449 201.746 119.654  0.00  0.00    +0.001 C 
ATOM     21  C   UNL A   1     -19.418 202.324 121.064  0.00  0.00    +0.000 C 
ATOM     22  C   UNL A   1     -18.033 202.187 121.685  0.00  0.00    +0.001 C 
ATOM     23  C   UNL A   1     -16.967 202.848 120.819  0.00  0.00    +0.010 C 
ENDBRANCH   7  18
TORSDOF 2
ENDMDL
MODEL 5
REMARK minimizedAffinity -7.66127062
REMARK minimizedRMSD -1
REMARK  Name = *****
REMARK  2 active torsions:
REMARK  status: ('A' for Active; 'I' for Inactive)
REMARK    1  A    between atoms: C_5  and  C_8
REMARK    2  A    between atoms: C_14  and  C_16
REMARK                            x       y       z     vdW  Elec       q    Type
REMARK                         _______ _______ _______ _____ _____    ______ ____
ROOT
ATOM      1  C   UNL A   1     -17.339 202.630 118.346  0.00  0.00    +0.249 C 
ATOM      2  O   UNL A   1     -17.780 202.098 117.330  0.00  0.00    -0.270 OA
ATOM      3  N   UNL A   1     -16.177 203.376 118.467  0.00  0.00    -0.265 N 
ATOM      4  C   UNL A   1     -15.373 203.679 117.382  0.00  0.00    +0.147 A 
ATOM      5  N   UNL A   1     -15.619 203.266 116.140  0.00  0.00    -0.158 NA
ATOM      6  N   UNL A   1     -14.642 203.776 115.402  0.00  0.00    -0.280 N 
ATOM      7  C   UNL A   1     -13.734 204.505 116.122  0.00  0.00    +0.041 A 
ATOM      8  C   UNL A   1     -14.199 204.469 117.422  0.00  0.00    +0.068 A 
ATOM      9  H   UNL A   1     -15.913 203.785 119.345  0.00  0.00    +0.157 HD
ATOM     10  H   UNL A   1     -14.660 203.588 114.407  0.00  0.00    +0.189 HD
ENDROOT
BRANCH   1  15
ATOM     11 BR   UNL A   1     -20.593 202.179 123.563  0.00  0.00    -0.050 Br
ATOM     12  C   UNL A   1     -19.620 202.315 121.949  0.00  0.00    +0.018 A 
ATOM     13  C   UNL A   1     -20.157 201.796 120.768  0.00  0.00    +0.016 A 
ATOM     14  C   UNL A   1     -19.433 201.877 119.573  0.00  0.00    +0.014 A 
ATOM     15  C   UNL A   1     -18.171 202.478 119.568  0.00  0.00    +0.037 A 
ATOM     16  C   UNL A   1     -17.653 203.013 120.761  0.00  0.00    +0.014 A 
ATOM     17  C   UNL A   1     -18.372 202.928 121.951  0.00  0.00    +0.016 A 
ENDBRANCH   1  15
BRANCH   7  18
ATOM     18  C   UNL A   1     -12.540 205.146 115.489  0.00  0.00    +0.037 C 
ATOM     19  C   UNL A   1     -12.518 206.656 115.782  0.00  0.00    +0.010 C 
ATOM     20  C   UNL A   1     -11.393 207.375 115.045  0.00  0.00    +0.001 C 
ATOM     21  C   UNL A   1     -11.441 207.097 113.548  0.00  0.00    +0.000 C 
ATOM     22  C   UNL A   1     -11.386 205.601 113.264  0.00  0.00    +0.001 C 
ATOM     23  C   UNL A   1     -12.509 204.856 113.977  0.00  0.00    +0.010 C 
ENDBRANCH   7  18
TORSDOF 2
ENDMDL
MODEL 6
REMARK minimizedAffinity -7.64902782
REMARK minimizedRMSD -1
REMARK  Name = *****
REMARK  2 active torsions:
REMARK  status: ('A' for Active; 'I' for Inactive)
REMARK    1  A    between atoms: C_5  and  C_8
REMARK    2  A    between atoms: C_14  and  C_16
REMARK                            x       y       z     vdW  Elec       q    Type
REMARK                         _______ _______ _______ _____ _____    ______ ____
ROOT
ATOM      1  C   UNL A   1     -13.548 205.622 113.432  0.00  0.00    +0.249 C 
ATOM      2  O   UNL A   1     -13.266 204.426 113.437  0.00  0.00    -0.270 OA
ATOM      3  N   UNL A   1     -12.720 206.682 113.767  0.00  0.00    -0.265 N 
ATOM      4  C   UNL A   1     -11.388 206.506 114.097  0.00  0.00    +0.147 A 
ATOM      5  N   UNL A   1     -10.788 205.319 114.152  0.00  0.00    -0.158 NA
ATOM      6  N   UNL A   1      -9.529 205.576 114.479  0.00  0.00    -0.280 N 
ATOM      7  C   UNL A   1      -9.273 206.908 114.667  0.00  0.00    +0.041 A 
ATOM      8  C   UNL A   1     -10.473 207.541 114.408  0.00  0.00    +0.068 A 
ATOM      9  H   UNL A   1     -13.044 207.630 113.714  0.00  0.00    +0.157 HD
ATOM     10  H   UNL A   1      -8.895 204.791 114.554  0.00  0.00    +0.189 HD
ENDROOT
BRANCH   1  15
ATOM     11 BR   UNL A   1     -19.150 207.045 111.285  0.00  0.00    -0.050 Br
ATOM     12  C   UNL A   1     -17.446 206.592 111.964  0.00  0.00    +0.018 A 
ATOM     13  C   UNL A   1     -17.314 206.175 113.290  0.00  0.00    +0.016 A 
ATOM     14  C   UNL A   1     -16.051 205.857 113.804  0.00  0.00    +0.014 A 
ATOM     15  C   UNL A   1     -14.924 205.960 112.984  0.00  0.00    +0.037 A 
ATOM     16  C   UNL A   1     -15.076 206.363 111.645  0.00  0.00    +0.014 A 
ATOM     17  C   UNL A   1     -16.332 206.684 111.135  0.00  0.00    +0.016 A 
ENDBRANCH   1  15
BRANCH   7  18
ATOM     18  C   UNL A   1      -7.923 207.415 115.065  0.00  0.00    +0.037 C 
ATOM     19  C   UNL A   1      -7.962 208.936 115.294  0.00  0.00    +0.010 C 
ATOM     20  C   UNL A   1      -6.581 209.518 115.571  0.00  0.00    +0.001 C 
ATOM     21  C   UNL A   1      -5.588 209.142 114.477  0.00  0.00    +0.000 C 
ATOM     22  C   UNL A   1      -5.500 207.630 114.310  0.00  0.00    +0.001 C 
ATOM     23  C   UNL A   1      -6.867 207.021 114.018  0.00  0.00    +0.010 C 
ENDBRANCH   7  18
TORSDOF 2
ENDMDL
MODEL 7
REMARK minimizedAffinity -7.63412523
REMARK minimizedRMSD -1
REMARK  Name = *****
REMARK  2 active torsions:
REMARK  status: ('A' for Active; 'I' for Inactive)
REMARK    1  A    between atoms: C_5  and  C_8
REMARK    2  A    between atoms: C_14  and  C_16
REMARK                            x       y       z     vdW  Elec       q    Type
REMARK                         _______ _______ _______ _____ _____    ______ ____
ROOT
ATOM      1  C   UNL A   1     -16.636 202.584 118.305  0.00  0.00    +0.249 C 
ATOM      2  O   UNL A   1     -15.870 201.641 118.120  0.00  0.00    -0.270 OA
ATOM      3  N   UNL A   1     -16.724 203.752 117.563  0.00  0.00    -0.265 N 
ATOM      4  C   UNL A   1     -15.965 203.968 116.427  0.00  0.00    +0.147 A 
ATOM      5  N   UNL A   1     -15.069 203.101 115.958  0.00  0.00    -0.158 NA
ATOM      6  N   UNL A   1     -14.579 203.662 114.861  0.00  0.00    -0.280 N 
ATOM      7  C   UNL A   1     -15.110 204.895 114.592  0.00  0.00    +0.041 A 
ATOM      8  C   UNL A   1     -16.032 205.113 115.596  0.00  0.00    +0.068 A 
ATOM      9  H   UNL A   1     -17.400 204.459 117.788  0.00  0.00    +0.157 HD
ATOM     10  H   UNL A   1     -13.884 203.143 114.340  0.00  0.00    +0.189 HD
ENDROOT
BRANCH   1  15
ATOM     11 BR   UNL A   1     -20.432 202.149 123.144  0.00  0.00    -0.050 Br
ATOM     12  C   UNL A   1     -19.291 202.277 121.643  0.00  0.00    +0.018 A 
ATOM     13  C   UNL A   1     -19.647 201.655 120.444  0.00  0.00    +0.016 A 
ATOM     14  C   UNL A   1     -18.796 201.730 119.335  0.00  0.00    +0.014 A 
ATOM     15  C   UNL A   1     -17.590 202.430 119.433  0.00  0.00    +0.037 A 
ATOM     16  C   UNL A   1     -17.255 203.068 120.641  0.00  0.00    +0.014 A 
ATOM     17  C   UNL A   1     -18.099 202.988 121.747  0.00  0.00    +0.016 A 
ENDBRANCH   1  15
BRANCH   7  18
ATOM     18  C   UNL A   1     -14.678 205.713 113.416  0.00  0.00    +0.037 C 
ATOM     19  C   UNL A   1     -15.768 205.716 112.330  0.00  0.00    +0.010 C 
ATOM     20  C   UNL A   1     -15.319 206.425 111.057  0.00  0.00    +0.001 C 
ATOM     21  C   UNL A   1     -14.008 205.851 110.533  0.00  0.00    +0.000 C 
ATOM     22  C   UNL A   1     -12.914 205.923 111.591  0.00  0.00    +0.001 C 
ATOM     23  C   UNL A   1     -13.330 205.209 112.872  0.00  0.00    +0.010 C 
ENDBRANCH   7  18
TORSDOF 2
ENDMDL
MODEL 8
REMARK minimizedAffinity -7.41261339
REMARK minimizedRMSD -1
REMARK  Name = *****
REMARK  2 active torsions:
REMARK  status: ('A' for Active; 'I' for Inactive)
REMARK    1  A    between atoms: C_5  and  C_8
REMARK    2  A    between atoms: C_14  and  C_16
REMARK                            x       y       z     vdW  Elec       q    Type
REMARK                         _______ _______ _______ _____ _____    ______ ____
ROOT
ATOM      1  C   UNL A   1     -14.911 203.521 117.416  0.00  0.00    +0.249 C 
ATOM      2  O   UNL A   1     -13.843 203.084 117.840  0.00  0.00    -0.270 OA
ATOM      3  N   UNL A   1     -15.102 204.372 116.339  0.00  0.00    -0.265 N 
ATOM      4  C   UNL A   1     -14.059 204.792 115.532  0.00  0.00    +0.147 A 
ATOM      5  N   UNL A   1     -12.787 204.449 115.726  0.00  0.00    -0.158 NA
ATOM      6  N   UNL A   1     -12.113 205.031 114.743  0.00  0.00    -0.280 N 
ATOM      7  C   UNL A   1     -12.899 205.775 113.905  0.00  0.00    +0.041 A 
ATOM      8  C   UNL A   1     -14.182 205.623 114.392  0.00  0.00    +0.068 A 
ATOM      9  H   UNL A   1     -16.022 204.659 116.062  0.00  0.00    +0.157 HD
ATOM     10  H   UNL A   1     -11.113 204.874 114.704  0.00  0.00    +0.189 HD
ENDROOT
BRANCH   1  15
ATOM     11 BR   UNL A   1     -19.828 201.652 120.632  0.00  0.00    -0.050 Br
ATOM     12  C   UNL A   1     -18.339 202.233 119.624  0.00  0.00    +0.018 A 
ATOM     13  C   UNL A   1     -18.429 202.312 118.233  0.00  0.00    +0.016 A 
ATOM     14  C   UNL A   1     -17.323 202.723 117.480  0.00  0.00    +0.014 A 
ATOM     15  C   UNL A   1     -16.129 203.053 118.127  0.00  0.00    +0.037 A 
ATOM     16  C   UNL A   1     -16.060 202.987 119.530  0.00  0.00    +0.014 A 
ATOM     17  C   UNL A   1     -17.160 202.573 120.279  0.00  0.00    +0.016 A 
ENDBRANCH   1  15
BRANCH   7  18
ATOM     18  C   UNL A   1     -12.337 206.535 112.746  0.00  0.00    +0.037 C 
ATOM     19  C   UNL A   1     -12.904 205.998 111.420  0.00  0.00    +0.010 C 
ATOM     20  C   UNL A   1     -12.259 206.653 110.204  0.00  0.00    +0.001 C 
ATOM     21  C   UNL A   1     -10.740 206.537 110.250  0.00  0.00    +0.000 C 
ATOM     22  C   UNL A   1     -10.181 207.141 111.533  0.00  0.00    +0.001 C 
ATOM     23  C   UNL A   1     -10.798 206.495 112.767  0.00  0.00    +0.010 C 
ENDBRANCH   7  18
TORSDOF 2
ENDMDL
MODEL 9
REMARK minimizedAffinity -7.33510113
REMARK minimizedRMSD -1
REMARK  Name = *****
REMARK  2 active torsions:
REMARK  status: ('A' for Active; 'I' for Inactive)
REMARK    1  A    between atoms: C_5  and  C_8
REMARK    2  A    between atoms: C_14  and  C_16
REMARK                            x       y       z     vdW  Elec       q    Type
REMARK                         _______ _______ _______ _____ _____    ______ ____
ROOT
ATOM      1  C   UNL A   1     -14.142 204.165 115.966  0.00  0.00    +0.249 C 
ATOM      2  O   UNL A   1     -13.152 204.244 116.689  0.00  0.00    -0.270 OA
ATOM      3  N   UNL A   1     -15.395 203.680 116.306  0.00  0.00    -0.265 N 
ATOM      4  C   UNL A   1     -15.707 203.270 117.591  0.00  0.00    +0.147 A 
ATOM      5  N   UNL A   1     -14.840 203.275 118.601  0.00  0.00    -0.158 NA
ATOM      6  N   UNL A   1     -15.523 202.836 119.650  0.00  0.00    -0.280 N 
ATOM      7  C   UNL A   1     -16.823 202.516 119.364  0.00  0.00    +0.041 A 
ATOM      8  C   UNL A   1     -16.973 202.805 118.022  0.00  0.00    +0.068 A 
ATOM      9  H   UNL A   1     -16.147 203.675 115.642  0.00  0.00    +0.157 HD
ATOM     10  H   UNL A   1     -15.036 202.783 120.537  0.00  0.00    +0.189 HD
ENDROOT
BRANCH   1  15
ATOM     11 BR   UNL A   1     -13.745 206.256 110.179  0.00  0.00    -0.050 Br
ATOM     12  C   UNL A   1     -13.846 205.634 111.960  0.00  0.00    +0.018 A 
ATOM     13  C   UNL A   1     -12.753 205.794 112.815  0.00  0.00    +0.016 A 
ATOM     14  C   UNL A   1     -12.815 205.318 114.130  0.00  0.00    +0.014 A 
ATOM     15  C   UNL A   1     -13.975 204.682 114.582  0.00  0.00    +0.037 A 
ATOM     16  C   UNL A   1     -15.074 204.546 113.715  0.00  0.00    +0.014 A 
ATOM     17  C   UNL A   1     -15.010 205.015 112.405  0.00  0.00    +0.016 A 
ENDBRANCH   1  15
BRANCH   7  18
ATOM     18  C   UNL A   1     -17.761 201.977 120.397  0.00  0.00    +0.037 C 
ATOM     19  C   UNL A   1     -19.170 201.796 119.807  0.00  0.00    +0.010 C 
ATOM     20  C   UNL A   1     -20.191 201.376 120.859  0.00  0.00    +0.001 C 
ATOM     21  C   UNL A   1     -20.199 202.338 122.041  0.00  0.00    +0.000 C 
ATOM     22  C   UNL A   1     -18.815 202.452 122.667  0.00  0.00    +0.001 C 
ATOM     23  C   UNL A   1     -17.774 202.884 121.641  0.00  0.00    +0.010 C 
ENDBRANCH   7  18
TORSDOF 2
ENDMDL
