MODEL 1
REMARK minimizedAffinity -7.95019913
REMARK minimizedRMSD -1
REMARK  Name = *****
REMARK  7 active torsions:
REMARK  status: ('A' for Active; 'I' for Inactive)
REMARK    1  A    between atoms: N_1  and  C_2
REMARK    2  A    between atoms: C_3  and  C_12
REMARK    3  A    between atoms: C_6  and  S_7
REMARK    4  A    between atoms: S_7  and  C_8
REMARK    5  A    between atoms: C_8  and  C_9
REMARK    6  A    between atoms: C_12  and  O_13
REMARK    7  A    between atoms: O_13  and  C_14
REMARK                            x       y       z     vdW  Elec       q    Type
REMARK                         _______ _______ _______ _____ _____    ______ ____
ROOT
ATOM      1  N   UNL A   1     -14.640 204.395 117.436  0.00  0.00    -0.306 N 
ATOM      2  C   UNL A   1     -14.076 205.320 118.383  0.00  0.00    +0.153 C 
ATOM      3  C   UNL A   1     -14.506 204.391 116.056  0.00  0.00    +0.172 A 
ATOM      4  N   UNL A   1     -15.166 203.357 115.570  0.00  0.00    -0.130 NA
ATOM      5  N   UNL A   1     -15.739 202.674 116.613  0.00  0.00    -0.122 NA
ATOM      6  C   UNL A   1     -15.415 203.281 117.723  0.00  0.00    +0.192 A 
ENDROOT
BRANCH   6   7
ATOM      7  S   UNL A   1     -15.963 202.786 119.299  0.00  0.00    -0.077 S 
BRANCH   7   8
ATOM      8  C   UNL A   1     -17.466 201.778 119.006  0.00  0.00    +0.172 C 
BRANCH   8   9
ATOM      9  C   UNL A   1     -17.179 200.299 119.012  0.00  0.00    +0.221 C 
ATOM     10  O   UNL A   1     -17.538 199.513 119.914  0.00  0.00    -0.275 OA
ATOM     11  N   UNL A   1     -16.516 199.835 117.927  0.00  0.00    -0.329 N 
ATOM     12  H   UNL A   1     -16.189 200.444 117.179  0.00  0.00    +0.145 HD
ATOM     13  H   UNL A   1     -16.295 198.851 117.887  0.00  0.00    +0.145 HD
ENDBRANCH   8   9
ENDBRANCH   7   8
ENDBRANCH   6   7
BRANCH   3  14
ATOM     14  C   UNL A   1     -13.787 205.386 115.193  0.00  0.00    +0.305 C 
BRANCH  14  15
ATOM     15  O   UNL A   1     -13.284 204.685 114.055  0.00  0.00    -0.482 OA
BRANCH  15  16
ATOM     16  C   UNL A   1     -13.717 205.148 112.828  0.00  0.00    +0.147 A 
ATOM     17  C   UNL A   1     -15.074 205.104 112.468  0.00  0.00    +0.048 A 
ATOM     18  C   UNL A   1     -15.495 205.666 111.270  0.00  0.00    +0.004 A 
ATOM     19  C   UNL A   1     -14.561 206.249 110.419  0.00  0.00    +0.010 A 
ATOM     20  C   UNL A   1     -13.198 206.269 110.755  0.00  0.00    +0.004 A 
ATOM     21  C   UNL A   1     -12.746 205.705 111.969  0.00  0.00    +0.113 A 
ATOM     22  N   UNL A   1     -11.437 205.762 112.317  0.00  0.00    -0.251 NA
ATOM     23  C   UNL A   1     -10.560 206.354 111.473  0.00  0.00    +0.111 A 
ATOM     24  C   UNL A   1     -10.919 206.918 110.268  0.00  0.00    +0.020 A 
ATOM     25  C   UNL A   1     -12.258 206.877 109.907  0.00  0.00    +0.012 A 
ENDBRANCH  15  16
ENDBRANCH  14  15
ENDBRANCH   3  14
TORSDOF 6
ENDMDL
MODEL 2
REMARK minimizedAffinity -7.87301588
REMARK minimizedRMSD -1
REMARK  Name = *****
REMARK  7 active torsions:
REMARK  status: ('A' for Active; 'I' for Inactive)
REMARK    1  A    between atoms: N_1  and  C_2
REMARK    2  A    between atoms: C_3  and  C_12
REMARK    3  A    between atoms: C_6  and  S_7
REMARK    4  A    between atoms: S_7  and  C_8
REMARK    5  A    between atoms: C_8  and  C_9
REMARK    6  A    between atoms: C_12  and  O_13
REMARK    7  A    between atoms: O_13  and  C_14
REMARK                            x       y       z     vdW  Elec       q    Type
REMARK                         _______ _______ _______ _____ _____    ______ ____
ROOT
ATOM      1  N   UNL A   1     -14.823 203.739 118.360  0.00  0.00    -0.306 N 
ATOM      2  C   UNL A   1     -14.095 204.257 119.487  0.00  0.00    +0.153 C 
ATOM      3  C   UNL A   1     -14.503 203.834 117.015  0.00  0.00    +0.172 A 
ATOM      4  N   UNL A   1     -15.428 203.204 116.314  0.00  0.00    -0.130 NA
ATOM      5  N   UNL A   1     -16.359 202.690 117.181  0.00  0.00    -0.122 NA
ATOM      6  C   UNL A   1     -15.994 202.995 118.397  0.00  0.00    +0.192 A 
ENDROOT
BRANCH   6   7
ATOM      7  S   UNL A   1     -16.909 202.586 119.820  0.00  0.00    -0.077 S 
BRANCH   7   8
ATOM      8  C   UNL A   1     -18.226 201.446 119.251  0.00  0.00    +0.172 C 
BRANCH   8   9
ATOM      9  C   UNL A   1     -19.494 202.167 118.876  0.00  0.00    +0.221 C 
ATOM     10  O   UNL A   1     -20.358 202.550 119.693  0.00  0.00    -0.275 OA
ATOM     11  N   UNL A   1     -19.643 202.425 117.556  0.00  0.00    -0.329 N 
ATOM     12  H   UNL A   1     -18.973 202.115 116.854  0.00  0.00    +0.145 HD
ATOM     13  H   UNL A   1     -20.480 202.902 117.253  0.00  0.00    +0.145 HD
ENDBRANCH   8   9
ENDBRANCH   7   8
ENDBRANCH   6   7
BRANCH   3  14
ATOM     14  C   UNL A   1     -13.347 204.554 116.387  0.00  0.00    +0.305 C 
BRANCH  14  15
ATOM     15  O   UNL A   1     -13.876 205.647 115.636  0.00  0.00    -0.482 OA
BRANCH  15  16
ATOM     16  C   UNL A   1     -13.524 205.681 114.300  0.00  0.00    +0.147 A 
ATOM     17  C   UNL A   1     -12.204 205.438 113.885  0.00  0.00    +0.048 A 
ATOM     18  C   UNL A   1     -11.899 205.381 112.532  0.00  0.00    +0.004 A 
ATOM     19  C   UNL A   1     -12.904 205.591 111.592  0.00  0.00    +0.010 A 
ATOM     20  C   UNL A   1     -14.220 205.866 111.997  0.00  0.00    +0.004 A 
ATOM     21  C   UNL A   1     -14.554 205.928 113.368  0.00  0.00    +0.113 A 
ATOM     22  N   UNL A   1     -15.833 206.149 113.762  0.00  0.00    -0.251 NA
ATOM     23  C   UNL A   1     -16.787 206.330 112.820  0.00  0.00    +0.111 A 
ATOM     24  C   UNL A   1     -16.540 206.294 111.464  0.00  0.00    +0.020 A 
ATOM     25  C   UNL A   1     -15.238 206.055 111.048  0.00  0.00    +0.012 A 
ENDBRANCH  15  16
ENDBRANCH  14  15
ENDBRANCH   3  14
TORSDOF 6
ENDMDL
MODEL 3
REMARK minimizedAffinity -7.83131027
REMARK minimizedRMSD -1
REMARK  Name = *****
REMARK  7 active torsions:
REMARK  status: ('A' for Active; 'I' for Inactive)
REMARK    1  A    between atoms: N_1  and  C_2
REMARK    2  A    between atoms: C_3  and  C_12
REMARK    3  A    between atoms: C_6  and  S_7
REMARK    4  A    between atoms: S_7  and  C_8
REMARK    5  A    between atoms: C_8  and  C_9
REMARK    6  A    between atoms: C_12  and  O_13
REMARK    7  A    between atoms: O_13  and  C_14
REMARK                            x       y       z     vdW  Elec       q    Type
REMARK                         _______ _______ _______ _____ _____    ______ ____
ROOT
ATOM      1  N   UNL A   1     -16.271 203.052 119.075  0.00  0.00    -0.306 N 
ATOM      2  C   UNL A   1     -15.153 203.443 119.893  0.00  0.00    +0.153 C 
ATOM      3  C   UNL A   1     -16.345 203.003 117.692  0.00  0.00    +0.172 A 
ATOM      4  N   UNL A   1     -17.544 202.571 117.349  0.00  0.00    -0.130 NA
ATOM      5  N   UNL A   1     -18.267 202.332 118.490  0.00  0.00    -0.122 NA
ATOM      6  C   UNL A   1     -17.507 202.604 119.516  0.00  0.00    +0.192 A 
ENDROOT
BRANCH   6   7
ATOM      7  S   UNL A   1     -18.030 202.491 121.172  0.00  0.00    -0.077 S 
BRANCH   7   8
ATOM      8  C   UNL A   1     -18.853 204.086 121.542  0.00  0.00    +0.172 C 
BRANCH   8   9
ATOM      9  C   UNL A   1     -20.247 204.163 120.974  0.00  0.00    +0.221 C 
ATOM     10  O   UNL A   1     -20.968 203.172 120.735  0.00  0.00    -0.275 OA
ATOM     11  N   UNL A   1     -20.715 205.415 120.760  0.00  0.00    -0.329 N 
ATOM     12  H   UNL A   1     -20.154 206.249 120.924  0.00  0.00    +0.145 HD
ATOM     13  H   UNL A   1     -21.641 205.519 120.375  0.00  0.00    +0.145 HD
ENDBRANCH   8   9
ENDBRANCH   7   8
ENDBRANCH   6   7
BRANCH   3  14
ATOM     14  C   UNL A   1     -15.300 203.402 116.693  0.00  0.00    +0.305 C 
BRANCH  14  15
ATOM     15  O   UNL A   1     -15.868 204.406 115.851  0.00  0.00    -0.482 OA
BRANCH  15  16
ATOM     16  C   UNL A   1     -15.087 204.804 114.784  0.00  0.00    +0.147 A 
ATOM     17  C   UNL A   1     -13.699 204.590 114.774  0.00  0.00    +0.048 A 
ATOM     18  C   UNL A   1     -12.953 204.910 113.648  0.00  0.00    +0.004 A 
ATOM     19  C   UNL A   1     -13.586 205.467 112.540  0.00  0.00    +0.010 A 
ATOM     20  C   UNL A   1     -14.968 205.714 112.551  0.00  0.00    +0.004 A 
ATOM     21  C   UNL A   1     -15.748 205.395 113.686  0.00  0.00    +0.113 A 
ATOM     22  N   UNL A   1     -17.090 205.591 113.684  0.00  0.00    -0.251 NA
ATOM     23  C   UNL A   1     -17.673 206.117 112.582  0.00  0.00    +0.111 A 
ATOM     24  C   UNL A   1     -16.982 206.463 111.441  0.00  0.00    +0.020 A 
ATOM     25  C   UNL A   1     -15.611 206.254 111.426  0.00  0.00    +0.012 A 
ENDBRANCH  15  16
ENDBRANCH  14  15
ENDBRANCH   3  14
TORSDOF 6
ENDMDL
MODEL 4
REMARK minimizedAffinity -7.68755817
REMARK minimizedRMSD -1
REMARK  Name = *****
REMARK  7 active torsions:
REMARK  status: ('A' for Active; 'I' for Inactive)
REMARK    1  A    between atoms: N_1  and  C_2
REMARK    2  A    between atoms: C_3  and  C_12
REMARK    3  A    between atoms: C_6  and  S_7
REMARK    4  A    between atoms: S_7  and  C_8
REMARK    5  A    between atoms: C_8  and  C_9
REMARK    6  A    between atoms: C_12  and  O_13
REMARK    7  A    between atoms: O_13  and  C_14
REMARK                            x       y       z     vdW  Elec       q    Type
REMARK                         _______ _______ _______ _____ _____    ______ ____
ROOT
ATOM      1  N   UNL A   1     -14.428 205.151 117.530  0.00  0.00    -0.306 N 
ATOM      2  C   UNL A   1     -14.654 203.823 118.034  0.00  0.00    +0.153 C 
ATOM      3  C   UNL A   1     -15.040 205.776 116.454  0.00  0.00    +0.172 A 
ATOM      4  N   UNL A   1     -14.558 206.999 116.345  0.00  0.00    -0.130 NA
ATOM      5  N   UNL A   1     -13.631 207.194 117.337  0.00  0.00    -0.122 NA
ATOM      6  C   UNL A   1     -13.563 206.103 118.050  0.00  0.00    +0.192 A 
ENDROOT
BRANCH   6   7
ATOM      7  S   UNL A   1     -12.478 205.882 119.393  0.00  0.00    -0.077 S 
BRANCH   7   8
ATOM      8  C   UNL A   1     -10.825 206.385 118.781  0.00  0.00    +0.172 C 
BRANCH   8   9
ATOM      9  C   UNL A   1     -10.512 207.828 119.080  0.00  0.00    +0.221 C 
ATOM     10  O   UNL A   1      -9.824 208.216 120.047  0.00  0.00    -0.275 OA
ATOM     11  N   UNL A   1     -11.004 208.722 118.191  0.00  0.00    -0.329 N 
ATOM     12  H   UNL A   1     -11.586 208.450 117.400  0.00  0.00    +0.145 HD
ATOM     13  H   UNL A   1     -10.827 209.702 118.351  0.00  0.00    +0.145 HD
ENDBRANCH   8   9
ENDBRANCH   7   8
ENDBRANCH   6   7
BRANCH   3  14
ATOM     14  C   UNL A   1     -16.051 205.204 115.504  0.00  0.00    +0.305 C 
BRANCH  14  15
ATOM     15  O   UNL A   1     -15.347 204.398 114.559  0.00  0.00    -0.482 OA
BRANCH  15  16
ATOM     16  C   UNL A   1     -15.142 204.972 113.319  0.00  0.00    +0.147 A 
ATOM     17  C   UNL A   1     -16.219 205.304 112.479  0.00  0.00    +0.048 A 
ATOM     18  C   UNL A   1     -15.990 205.969 111.283  0.00  0.00    +0.004 A 
ATOM     19  C   UNL A   1     -14.686 206.282 110.910  0.00  0.00    +0.010 A 
ATOM     20  C   UNL A   1     -13.600 205.927 111.726  0.00  0.00    +0.004 A 
ATOM     21  C   UNL A   1     -13.809 205.251 112.950  0.00  0.00    +0.113 A 
ATOM     22  N   UNL A   1     -12.767 204.946 113.762  0.00  0.00    -0.251 NA
ATOM     23  C   UNL A   1     -11.515 205.283 113.375  0.00  0.00    +0.111 A 
ATOM     24  C   UNL A   1     -11.227 205.934 112.194  0.00  0.00    +0.020 A 
ATOM     25  C   UNL A   1     -12.287 206.263 111.361  0.00  0.00    +0.012 A 
ENDBRANCH  15  16
ENDBRANCH  14  15
ENDBRANCH   3  14
TORSDOF 6
ENDMDL
MODEL 5
REMARK minimizedAffinity -7.42207289
REMARK minimizedRMSD -1
REMARK  Name = *****
REMARK  7 active torsions:
REMARK  status: ('A' for Active; 'I' for Inactive)
REMARK    1  A    between atoms: N_1  and  C_2
REMARK    2  A    between atoms: C_3  and  C_12
REMARK    3  A    between atoms: C_6  and  S_7
REMARK    4  A    between atoms: S_7  and  C_8
REMARK    5  A    between atoms: C_8  and  C_9
REMARK    6  A    between atoms: C_12  and  O_13
REMARK    7  A    between atoms: O_13  and  C_14
REMARK                            x       y       z     vdW  Elec       q    Type
REMARK                         _______ _______ _______ _____ _____    ______ ____
ROOT
ATOM      1  N   UNL A   1     -14.410 205.523 116.783  0.00  0.00    -0.306 N 
ATOM      2  C   UNL A   1     -14.571 204.241 117.415  0.00  0.00    +0.153 C 
ATOM      3  C   UNL A   1     -14.674 205.870 115.467  0.00  0.00    +0.172 A 
ATOM      4  N   UNL A   1     -14.408 207.153 115.306  0.00  0.00    -0.130 NA
ATOM      5  N   UNL A   1     -13.971 207.662 116.503  0.00  0.00    -0.122 NA
ATOM      6  C   UNL A   1     -13.985 206.699 117.384  0.00  0.00    +0.192 A 
ENDROOT
BRANCH   6   7
ATOM      7  S   UNL A   1     -13.460 206.880 119.033  0.00  0.00    -0.077 S 
BRANCH   7   8
ATOM      8  C   UNL A   1     -11.643 206.641 119.004  0.00  0.00    +0.172 C 
BRANCH   8   9
ATOM      9  C   UNL A   1     -10.890 207.943 118.930  0.00  0.00    +0.221 C 
ATOM     10  O   UNL A   1     -10.146 208.382 119.832  0.00  0.00    -0.275 OA
ATOM     11  N   UNL A   1     -11.035 208.629 117.771  0.00  0.00    -0.329 N 
ATOM     12  H   UNL A   1     -11.646 208.316 117.018  0.00  0.00    +0.145 HD
ATOM     13  H   UNL A   1     -10.555 209.511 117.675  0.00  0.00    +0.145 HD
ENDBRANCH   8   9
ENDBRANCH   7   8
ENDBRANCH   6   7
BRANCH   3  14
ATOM     14  C   UNL A   1     -15.138 204.982 114.351  0.00  0.00    +0.305 C 
BRANCH  14  15
ATOM     15  O   UNL A   1     -13.977 204.484 113.684  0.00  0.00    -0.482 OA
BRANCH  15  16
ATOM     16  C   UNL A   1     -13.663 205.103 112.489  0.00  0.00    +0.147 A 
ATOM     17  C   UNL A   1     -14.585 205.159 111.430  0.00  0.00    +0.048 A 
ATOM     18  C   UNL A   1     -14.280 205.871 110.279  0.00  0.00    +0.004 A 
ATOM     19  C   UNL A   1     -13.045 206.507 110.170  0.00  0.00    +0.010 A 
ATOM     20  C   UNL A   1     -12.105 206.430 111.210  0.00  0.00    +0.004 A 
ATOM     21  C   UNL A   1     -12.394 205.712 112.392  0.00  0.00    +0.113 A 
ATOM     22  N   UNL A   1     -11.505 205.673 113.416  0.00  0.00    -0.251 NA
ATOM     23  C   UNL A   1     -10.324 206.319 113.283  0.00  0.00    +0.111 A 
ATOM     24  C   UNL A   1      -9.963 207.032 112.159  0.00  0.00    +0.020 A 
ATOM     25  C   UNL A   1     -10.870 207.090 111.110  0.00  0.00    +0.012 A 
ENDBRANCH  15  16
ENDBRANCH  14  15
ENDBRANCH   3  14
TORSDOF 6
ENDMDL
MODEL 6
REMARK minimizedAffinity -7.40201902
REMARK minimizedRMSD -1
REMARK  Name = *****
REMARK  7 active torsions:
REMARK  status: ('A' for Active; 'I' for Inactive)
REMARK    1  A    between atoms: N_1  and  C_2
REMARK    2  A    between atoms: C_3  and  C_12
REMARK    3  A    between atoms: C_6  and  S_7
REMARK    4  A    between atoms: S_7  and  C_8
REMARK    5  A    between atoms: C_8  and  C_9
REMARK    6  A    between atoms: C_12  and  O_13
REMARK    7  A    between atoms: O_13  and  C_14
REMARK                            x       y       z     vdW  Elec       q    Type
REMARK                         _______ _______ _______ _____ _____    ______ ____
ROOT
ATOM      1  N   UNL A   1     -12.709 204.984 117.136  0.00  0.00    -0.306 N 
ATOM      2  C   UNL A   1     -11.803 203.867 117.150  0.00  0.00    +0.153 C 
ATOM      3  C   UNL A   1     -12.859 205.954 116.157  0.00  0.00    +0.172 A 
ATOM      4  N   UNL A   1     -13.814 206.785 116.528  0.00  0.00    -0.130 NA
ATOM      5  N   UNL A   1     -14.301 206.378 117.744  0.00  0.00    -0.122 NA
ATOM      6  C   UNL A   1     -13.655 205.300 118.100  0.00  0.00    +0.192 A 
ENDROOT
BRANCH   6   7
ATOM      7  S   UNL A   1     -13.912 204.463 119.604  0.00  0.00    -0.077 S 
BRANCH   7   8
ATOM      8  C   UNL A   1     -15.405 203.431 119.347  0.00  0.00    +0.172 C 
BRANCH   8   9
ATOM      9  C   UNL A   1     -15.447 202.804 117.978  0.00  0.00    +0.221 C 
ATOM     10  O   UNL A   1     -16.171 203.201 117.041  0.00  0.00    -0.275 OA
ATOM     11  N   UNL A   1     -14.597 201.767 117.792  0.00  0.00    -0.329 N 
ATOM     12  H   UNL A   1     -14.004 201.400 118.534  0.00  0.00    +0.145 HD
ATOM     13  H   UNL A   1     -14.592 201.309 116.892  0.00  0.00    +0.145 HD
ENDBRANCH   8   9
ENDBRANCH   7   8
ENDBRANCH   6   7
BRANCH   3  14
ATOM     14  C   UNL A   1     -12.073 206.120 114.890  0.00  0.00    +0.305 C 
BRANCH  14  15
ATOM     15  O   UNL A   1     -12.537 205.138 113.963  0.00  0.00    -0.482 OA
BRANCH  15  16
ATOM     16  C   UNL A   1     -13.017 205.627 112.763  0.00  0.00    +0.147 A 
ATOM     17  C   UNL A   1     -12.155 205.901 111.688  0.00  0.00    +0.048 A 
ATOM     18  C   UNL A   1     -12.674 206.297 110.463  0.00  0.00    +0.004 A 
ATOM     19  C   UNL A   1     -14.050 206.446 110.316  0.00  0.00    +0.010 A 
ATOM     20  C   UNL A   1     -14.918 206.206 111.393  0.00  0.00    +0.004 A 
ATOM     21  C   UNL A   1     -14.412 205.800 112.649  0.00  0.00    +0.113 A 
ATOM     22  N   UNL A   1     -15.251 205.524 113.678  0.00  0.00    -0.251 NA
ATOM     23  C   UNL A   1     -16.584 205.661 113.492  0.00  0.00    +0.111 A 
ATOM     24  C   UNL A   1     -17.154 206.061 112.303  0.00  0.00    +0.020 A 
ATOM     25  C   UNL A   1     -16.307 206.333 111.238  0.00  0.00    +0.012 A 
ENDBRANCH  15  16
ENDBRANCH  14  15
ENDBRANCH   3  14
TORSDOF 6
ENDMDL
MODEL 7
REMARK minimizedAffinity -7.31603003
REMARK minimizedRMSD -1
REMARK  Name = *****
REMARK  7 active torsions:
REMARK  status: ('A' for Active; 'I' for Inactive)
REMARK    1  A    between atoms: N_1  and  C_2
REMARK    2  A    between atoms: C_3  and  C_12
REMARK    3  A    between atoms: C_6  and  S_7
REMARK    4  A    between atoms: S_7  and  C_8
REMARK    5  A    between atoms: C_8  and  C_9
REMARK    6  A    between atoms: C_12  and  O_13
REMARK    7  A    between atoms: O_13  and  C_14
REMARK                            x       y       z     vdW  Elec       q    Type
REMARK                         _______ _______ _______ _____ _____    ______ ____
ROOT
ATOM      1  N   UNL A   1     -11.616 205.649 116.245  0.00  0.00    -0.306 N 
ATOM      2  C   UNL A   1     -10.953 204.386 116.439  0.00  0.00    +0.153 C 
ATOM      3  C   UNL A   1     -12.906 205.879 115.794  0.00  0.00    +0.172 A 
ATOM      4  N   UNL A   1     -13.124 207.181 115.782  0.00  0.00    -0.130 NA
ATOM      5  N   UNL A   1     -11.991 207.818 116.222  0.00  0.00    -0.122 NA
ATOM      6  C   UNL A   1     -11.100 206.908 116.511  0.00  0.00    +0.192 A 
ENDROOT
BRANCH   6   7
ATOM      7  S   UNL A   1      -9.488 207.265 117.062  0.00  0.00    -0.077 S 
BRANCH   7   8
ATOM      8  C   UNL A   1      -8.662 208.112 115.663  0.00  0.00    +0.172 C 
BRANCH   8   9
ATOM      9  C   UNL A   1      -9.040 207.526 114.328  0.00  0.00    +0.221 C 
ATOM     10  O   UNL A   1      -9.704 208.124 113.455  0.00  0.00    -0.275 OA
ATOM     11  N   UNL A   1      -8.574 206.277 114.093  0.00  0.00    -0.329 N 
ATOM     12  H   UNL A   1      -8.045 205.746 114.783  0.00  0.00    +0.145 HD
ATOM     13  H   UNL A   1      -8.805 205.838 113.214  0.00  0.00    +0.145 HD
ENDBRANCH   8   9
ENDBRANCH   7   8
ENDBRANCH   6   7
BRANCH   3  14
ATOM     14  C   UNL A   1     -13.920 204.874 115.334  0.00  0.00    +0.305 C 
BRANCH  14  15
ATOM     15  O   UNL A   1     -13.492 204.379 114.065  0.00  0.00    -0.482 OA
BRANCH  15  16
ATOM     16  C   UNL A   1     -14.137 204.914 112.966  0.00  0.00    +0.147 A 
ATOM     17  C   UNL A   1     -15.538 204.908 112.865  0.00  0.00    +0.048 A 
ATOM     18  C   UNL A   1     -16.162 205.540 111.799  0.00  0.00    +0.004 A 
ATOM     19  C   UNL A   1     -15.390 206.158 110.818  0.00  0.00    +0.010 A 
ATOM     20  C   UNL A   1     -13.988 206.142 110.894  0.00  0.00    +0.004 A 
ATOM     21  C   UNL A   1     -13.330 205.506 111.971  0.00  0.00    +0.113 A 
ATOM     22  N   UNL A   1     -11.978 205.527 112.069  0.00  0.00    -0.251 NA
ATOM     23  C   UNL A   1     -11.261 206.153 111.108  0.00  0.00    +0.111 A 
ATOM     24  C   UNL A   1     -11.826 206.788 110.022  0.00  0.00    +0.020 A 
ATOM     25  C   UNL A   1     -13.209 206.784 109.918  0.00  0.00    +0.012 A 
ENDBRANCH  15  16
ENDBRANCH  14  15
ENDBRANCH   3  14
TORSDOF 6
ENDMDL
MODEL 8
REMARK minimizedAffinity -7.134655
REMARK minimizedRMSD -1
REMARK  Name = *****
REMARK  7 active torsions:
REMARK  status: ('A' for Active; 'I' for Inactive)
REMARK    1  A    between atoms: N_1  and  C_2
REMARK    2  A    between atoms: C_3  and  C_12
REMARK    3  A    between atoms: C_6  and  S_7
REMARK    4  A    between atoms: S_7  and  C_8
REMARK    5  A    between atoms: C_8  and  C_9
REMARK    6  A    between atoms: C_12  and  O_13
REMARK    7  A    between atoms: O_13  and  C_14
REMARK                            x       y       z     vdW  Elec       q    Type
REMARK                         _______ _______ _______ _____ _____    ______ ____
ROOT
ATOM      1  N   UNL A   1     -13.825 204.310 117.331  0.00  0.00    -0.306 N 
ATOM      2  C   UNL A   1     -12.736 204.312 118.271  0.00  0.00    +0.153 C 
ATOM      3  C   UNL A   1     -13.905 204.960 116.109  0.00  0.00    +0.172 A 
ATOM      4  N   UNL A   1     -15.069 204.678 115.555  0.00  0.00    -0.130 NA
ATOM      5  N   UNL A   1     -15.764 203.846 116.397  0.00  0.00    -0.122 NA
ATOM      6  C   UNL A   1     -15.021 203.616 117.445  0.00  0.00    +0.192 A 
ENDROOT
BRANCH   6   7
ATOM      7  S   UNL A   1     -15.523 202.647 118.800  0.00  0.00    -0.077 S 
BRANCH   7   8
ATOM      8  C   UNL A   1     -17.354 202.731 118.818  0.00  0.00    +0.172 C 
BRANCH   8   9
ATOM      9  C   UNL A   1     -17.989 201.674 117.953  0.00  0.00    +0.221 C 
ATOM     10  O   UNL A   1     -18.944 201.878 117.174  0.00  0.00    -0.275 OA
ATOM     11  N   UNL A   1     -17.428 200.445 118.037  0.00  0.00    -0.329 N 
ATOM     12  H   UNL A   1     -16.662 200.231 118.673  0.00  0.00    +0.145 HD
ATOM     13  H   UNL A   1     -17.822 199.701 117.481  0.00  0.00    +0.145 HD
ENDBRANCH   8   9
ENDBRANCH   7   8
ENDBRANCH   6   7
BRANCH   3  14
ATOM     14  C   UNL A   1     -12.899 205.880 115.483  0.00  0.00    +0.305 C 
BRANCH  14  15
ATOM     15  O   UNL A   1     -12.151 205.120 114.533  0.00  0.00    -0.482 OA
BRANCH  15  16
ATOM     16  C   UNL A   1     -11.678 205.824 113.442  0.00  0.00    +0.147 A 
ATOM     17  C   UNL A   1     -10.388 206.378 113.433  0.00  0.00    +0.048 A 
ATOM     18  C   UNL A   1      -9.903 206.994 112.288  0.00  0.00    +0.004 A 
ATOM     19  C   UNL A   1     -10.713 207.082 111.159  0.00  0.00    +0.010 A 
ATOM     20  C   UNL A   1     -12.015 206.559 111.168  0.00  0.00    +0.004 A 
ATOM     21  C   UNL A   1     -12.530 205.926 112.322  0.00  0.00    +0.113 A 
ATOM     22  N   UNL A   1     -13.772 205.381 112.320  0.00  0.00    -0.251 NA
ATOM     23  C   UNL A   1     -14.523 205.467 111.198  0.00  0.00    +0.111 A 
ATOM     24  C   UNL A   1     -14.098 206.076 110.036  0.00  0.00    +0.020 A 
ATOM     25  C   UNL A   1     -12.824 206.626 110.022  0.00  0.00    +0.012 A 
ENDBRANCH  15  16
ENDBRANCH  14  15
ENDBRANCH   3  14
TORSDOF 6
ENDMDL
MODEL 9
REMARK minimizedAffinity -7.09958553
REMARK minimizedRMSD -1
REMARK  Name = *****
REMARK  7 active torsions:
REMARK  status: ('A' for Active; 'I' for Inactive)
REMARK    1  A    between atoms: N_1  and  C_2
REMARK    2  A    between atoms: C_3  and  C_12
REMARK    3  A    between atoms: C_6  and  S_7
REMARK    4  A    between atoms: S_7  and  C_8
REMARK    5  A    between atoms: C_8  and  C_9
REMARK    6  A    between atoms: C_12  and  O_13
REMARK    7  A    between atoms: O_13  and  C_14
REMARK                            x       y       z     vdW  Elec       q    Type
REMARK                         _______ _______ _______ _____ _____    ______ ____
ROOT
ATOM      1  N   UNL A   1     -12.719 205.508 117.102  0.00  0.00    -0.306 N 
ATOM      2  C   UNL A   1     -12.318 204.345 116.355  0.00  0.00    +0.153 C 
ATOM      3  C   UNL A   1     -13.932 206.178 117.061  0.00  0.00    +0.172 A 
ATOM      4  N   UNL A   1     -13.890 207.180 117.919  0.00  0.00    -0.130 NA
ATOM      5  N   UNL A   1     -12.661 207.183 118.529  0.00  0.00    -0.122 NA
ATOM      6  C   UNL A   1     -11.970 206.182 118.055  0.00  0.00    +0.192 A 
ENDROOT
BRANCH   6   7
ATOM      7  S   UNL A   1     -10.328 205.830 118.513  0.00  0.00    -0.077 S 
BRANCH   7   8
ATOM      8  C   UNL A   1      -9.328 207.235 117.891  0.00  0.00    +0.172 C 
BRANCH   8   9
ATOM      9  C   UNL A   1      -9.653 207.589 116.464  0.00  0.00    +0.221 C 
ATOM     10  O   UNL A   1      -9.230 206.968 115.467  0.00  0.00    -0.275 OA
ATOM     11  N   UNL A   1     -10.494 208.639 116.307  0.00  0.00    -0.329 N 
ATOM     12  H   UNL A   1     -10.848 209.185 117.091  0.00  0.00    +0.145 HD
ATOM     13  H   UNL A   1     -10.738 208.920 115.368  0.00  0.00    +0.145 HD
ENDBRANCH   8   9
ENDBRANCH   7   8
ENDBRANCH   6   7
BRANCH   3  14
ATOM     14  C   UNL A   1     -15.115 205.897 116.184  0.00  0.00    +0.305 C 
BRANCH  14  15
ATOM     15  O   UNL A   1     -15.152 206.905 115.173  0.00  0.00    -0.482 OA
BRANCH  15  16
ATOM     16  C   UNL A   1     -15.182 206.444 113.871  0.00  0.00    +0.147 A 
ATOM     17  C   UNL A   1     -16.387 206.057 113.260  0.00  0.00    +0.048 A 
ATOM     18  C   UNL A   1     -16.403 205.692 111.921  0.00  0.00    +0.004 A 
ATOM     19  C   UNL A   1     -15.214 205.688 111.195  0.00  0.00    +0.010 A 
ATOM     20  C   UNL A   1     -14.000 206.043 111.805  0.00  0.00    +0.004 A 
ATOM     21  C   UNL A   1     -13.960 206.420 113.167  0.00  0.00    +0.113 A 
ATOM     22  N   UNL A   1     -12.796 206.806 113.746  0.00  0.00    -0.251 NA
ATOM     23  C   UNL A   1     -11.664 206.808 113.005  0.00  0.00    +0.111 A 
ATOM     24  C   UNL A   1     -11.619 206.446 111.675  0.00  0.00    +0.020 A 
ATOM     25  C   UNL A   1     -12.805 206.062 111.068  0.00  0.00    +0.012 A 
ENDBRANCH  15  16
ENDBRANCH  14  15
ENDBRANCH   3  14
TORSDOF 6
ENDMDL
