MODEL 1
REMARK minimizedAffinity -7.33993244
REMARK minimizedRMSD -1
REMARK  Name = *****
REMARK  7 active torsions:
REMARK  status: ('A' for Active; 'I' for Inactive)
REMARK    1  A    between atoms: C_2  and  C_4
REMARK    2  A    between atoms: C_7  and  N_13
REMARK    3  A    between atoms: C_8  and  N_10
REMARK    4  A    between atoms: N_13  and  C_14
REMARK    5  A    between atoms: C_14  and  C_15
REMARK    6  A    between atoms: C_15  and  C_16
REMARK    7  A    between atoms: C_16  and  N_17
REMARK                            x       y       z     vdW  Elec       q    Type
REMARK                         _______ _______ _______ _____ _____    ______ ____
ROOT
ATOM      1  C   UNL A   1     -17.309 206.254 111.993  0.00  0.00    +0.039 A 
ATOM      2  C   UNL A   1     -16.412 207.049 111.287  0.00  0.00    +0.015 A 
ATOM      3  C   UNL A   1     -15.061 206.687 111.194  0.00  0.00    +0.026 A 
ATOM      4  C   UNL A   1     -14.563 205.528 111.810  0.00  0.00    +0.054 A 
ATOM      5  C   UNL A   1     -15.494 204.741 112.535  0.00  0.00    +0.097 A 
ATOM      6  C   UNL A   1     -16.855 205.088 112.613  0.00  0.00    +0.043 A 
ENDROOT
BRANCH   1   8
ATOM      7  O   UNL A   1     -19.518 206.152 112.830  0.00  0.00    -0.270 OA
ATOM      8  C   UNL A   1     -18.737 206.658 112.035  0.00  0.00    +0.242 C 
ATOM      9  N   UNL A   1     -19.151 207.593 111.131  0.00  0.00    -0.325 N 
ATOM     10  H   UNL A   1     -20.144 207.792 111.114  0.00  0.00    +0.145 HD
ATOM     11  H   UNL A   1     -18.608 207.867 110.324  0.00  0.00    +0.145 HD
ENDBRANCH   1   8
BRANCH   5  12
ATOM     12  N   UNL A   1     -15.070 203.525 113.257  0.00  0.00    -0.185 N 
ATOM     13  O   UNL A   1     -15.119 203.525 114.497  0.00  0.00    -0.172 OA
ATOM     14  O   UNL A   1     -14.731 202.542 112.578  0.00  0.00    -0.777 OA
ENDBRANCH   5  12
BRANCH   4  15
ATOM     15  N   UNL A   1     -13.259 205.103 111.587  0.00  0.00    -0.342 N 
ATOM     16  H   UNL A   1     -13.156 204.086 111.637  0.00  0.00    +0.146 HD
BRANCH  15  17
ATOM     17  C   UNL A   1     -12.065 205.882 111.882  0.00  0.00    +0.103 C 
BRANCH  17  18
ATOM     18  C   UNL A   1     -11.440 205.393 113.195  0.00  0.00    +0.034 C 
BRANCH  18  19
ATOM     19  C   UNL A   1     -12.319 205.753 114.402  0.00  0.00    +0.086 C 
BRANCH  19  20
ATOM     20  N   UNL A   1     -12.477 207.198 114.654  0.00  0.00    -0.298 NA
ATOM     21  C   UNL A   1     -11.941 207.642 115.961  0.00  0.00    +0.112 C 
ATOM     22  C   UNL A   1     -12.738 207.125 117.167  0.00  0.00    +0.175 C 
ATOM     23  O   UNL A   1     -14.109 207.539 117.087  0.00  0.00    -0.377 OA
ATOM     24  C   UNL A   1     -14.709 207.084 115.869  0.00  0.00    +0.175 C 
ATOM     25  C   UNL A   1     -13.920 207.556 114.630  0.00  0.00    +0.112 C 
ENDBRANCH  19  20
ENDBRANCH  18  19
ENDBRANCH  17  18
ENDBRANCH  15  17
ENDBRANCH   4  15
TORSDOF 7
ENDMDL
MODEL 2
REMARK minimizedAffinity -7.26085997
REMARK minimizedRMSD -1
REMARK  Name = *****
REMARK  7 active torsions:
REMARK  status: ('A' for Active; 'I' for Inactive)
REMARK    1  A    between atoms: C_2  and  C_4
REMARK    2  A    between atoms: C_7  and  N_13
REMARK    3  A    between atoms: C_8  and  N_10
REMARK    4  A    between atoms: N_13  and  C_14
REMARK    5  A    between atoms: C_14  and  C_15
REMARK    6  A    between atoms: C_15  and  C_16
REMARK    7  A    between atoms: C_16  and  N_17
REMARK                            x       y       z     vdW  Elec       q    Type
REMARK                         _______ _______ _______ _____ _____    ______ ____
ROOT
ATOM      1  C   UNL A   1     -17.169 206.239 111.901  0.00  0.00    +0.039 A 
ATOM      2  C   UNL A   1     -16.224 207.071 111.308  0.00  0.00    +0.015 A 
ATOM      3  C   UNL A   1     -14.869 206.715 111.297  0.00  0.00    +0.026 A 
ATOM      4  C   UNL A   1     -14.414 205.525 111.886  0.00  0.00    +0.054 A 
ATOM      5  C   UNL A   1     -15.393 204.700 112.497  0.00  0.00    +0.097 A 
ATOM      6  C   UNL A   1     -16.758 205.042 112.491  0.00  0.00    +0.043 A 
ENDROOT
BRANCH   1   8
ATOM      7  O   UNL A   1     -18.968 207.605 111.201  0.00  0.00    -0.270 OA
ATOM      8  C   UNL A   1     -18.598 206.641 111.857  0.00  0.00    +0.242 C 
ATOM      9  N   UNL A   1     -19.478 205.912 112.604  0.00  0.00    -0.325 N 
ATOM     10  H   UNL A   1     -20.432 206.252 112.633  0.00  0.00    +0.145 HD
ATOM     11  H   UNL A   1     -19.193 205.262 113.323  0.00  0.00    +0.145 HD
ENDBRANCH   1   8
BRANCH   5  12
ATOM     12  N   UNL A   1     -15.020 203.447 113.183  0.00  0.00    -0.185 N 
ATOM     13  O   UNL A   1     -14.675 202.474 112.493  0.00  0.00    -0.172 OA
ATOM     14  O   UNL A   1     -15.024 203.448 114.424  0.00  0.00    -0.777 OA
ENDBRANCH   5  12
BRANCH   4  15
ATOM     15  N   UNL A   1     -13.096 205.112 111.740  0.00  0.00    -0.342 N 
ATOM     16  H   UNL A   1     -12.848 204.337 112.362  0.00  0.00    +0.146 HD
BRANCH  15  17
ATOM     17  C   UNL A   1     -11.997 205.964 111.312  0.00  0.00    +0.103 C 
BRANCH  17  18
ATOM     18  C   UNL A   1     -11.235 206.483 112.539  0.00  0.00    +0.034 C 
BRANCH  18  19
ATOM     19  C   UNL A   1     -11.138 205.410 113.633  0.00  0.00    +0.086 C 
BRANCH  19  20
ATOM     20  N   UNL A   1     -12.206 205.453 114.651  0.00  0.00    -0.298 NA
ATOM     21  C   UNL A   1     -12.505 206.815 115.150  0.00  0.00    +0.112 C 
ATOM     22  C   UNL A   1     -11.378 207.429 115.993  0.00  0.00    +0.175 C 
ATOM     23  O   UNL A   1     -11.079 206.599 117.124  0.00  0.00    -0.377 OA
ATOM     24  C   UNL A   1     -10.716 205.278 116.706  0.00  0.00    +0.175 C 
ATOM     25  C   UNL A   1     -11.811 204.635 115.827  0.00  0.00    +0.112 C 
ENDBRANCH  19  20
ENDBRANCH  18  19
ENDBRANCH  17  18
ENDBRANCH  15  17
ENDBRANCH   4  15
TORSDOF 7
ENDMDL
MODEL 3
REMARK minimizedAffinity -7.16267729
REMARK minimizedRMSD -1
REMARK  Name = *****
REMARK  7 active torsions:
REMARK  status: ('A' for Active; 'I' for Inactive)
REMARK    1  A    between atoms: C_2  and  C_4
REMARK    2  A    between atoms: C_7  and  N_13
REMARK    3  A    between atoms: C_8  and  N_10
REMARK    4  A    between atoms: N_13  and  C_14
REMARK    5  A    between atoms: C_14  and  C_15
REMARK    6  A    between atoms: C_15  and  C_16
REMARK    7  A    between atoms: C_16  and  N_17
REMARK                            x       y       z     vdW  Elec       q    Type
REMARK                         _______ _______ _______ _____ _____    ______ ____
ROOT
ATOM      1  C   UNL A   1     -17.241 206.239 111.993  0.00  0.00    +0.039 A 
ATOM      2  C   UNL A   1     -16.332 207.051 111.322  0.00  0.00    +0.015 A 
ATOM      3  C   UNL A   1     -14.982 206.683 111.230  0.00  0.00    +0.026 A 
ATOM      4  C   UNL A   1     -14.499 205.501 111.814  0.00  0.00    +0.054 A 
ATOM      5  C   UNL A   1     -15.441 204.698 112.504  0.00  0.00    +0.097 A 
ATOM      6  C   UNL A   1     -16.801 205.051 112.580  0.00  0.00    +0.043 A 
ENDROOT
BRANCH   1   8
ATOM      7  O   UNL A   1     -19.446 206.170 112.847  0.00  0.00    -0.270 OA
ATOM      8  C   UNL A   1     -18.667 206.652 112.034  0.00  0.00    +0.242 C 
ATOM      9  N   UNL A   1     -19.083 207.565 111.110  0.00  0.00    -0.325 N 
ATOM     10  H   UNL A   1     -20.075 207.769 111.094  0.00  0.00    +0.145 HD
ATOM     11  H   UNL A   1     -18.543 207.816 110.293  0.00  0.00    +0.145 HD
ENDBRANCH   1   8
BRANCH   5  12
ATOM     12  N   UNL A   1     -15.032 203.456 113.191  0.00  0.00    -0.185 N 
ATOM     13  O   UNL A   1     -15.075 203.424 114.431  0.00  0.00    -0.172 OA
ATOM     14  O   UNL A   1     -14.712 202.487 112.484  0.00  0.00    -0.777 OA
ENDBRANCH   5  12
BRANCH   4  15
ATOM     15  N   UNL A   1     -13.195 205.075 111.590  0.00  0.00    -0.342 N 
ATOM     16  H   UNL A   1     -13.137 204.295 110.930  0.00  0.00    +0.146 HD
BRANCH  15  17
ATOM     17  C   UNL A   1     -12.106 205.182 112.549  0.00  0.00    +0.103 C 
BRANCH  17  18
ATOM     18  C   UNL A   1     -11.826 206.661 112.851  0.00  0.00    +0.034 C 
BRANCH  18  19
ATOM     19  C   UNL A   1     -10.356 207.018 112.583  0.00  0.00    +0.086 C 
BRANCH  19  20
ATOM     20  N   UNL A   1      -9.410 206.612 113.640  0.00  0.00    -0.298 NA
ATOM     21  C   UNL A   1      -9.721 207.176 114.974  0.00  0.00    +0.112 C 
ATOM     22  C   UNL A   1      -9.514 208.694 115.071  0.00  0.00    +0.175 C 
ATOM     23  O   UNL A   1      -8.161 209.044 114.747  0.00  0.00    -0.377 OA
ATOM     24  C   UNL A   1      -7.814 208.583 113.436  0.00  0.00    +0.175 C 
ATOM     25  C   UNL A   1      -8.039 207.063 113.285  0.00  0.00    +0.112 C 
ENDBRANCH  19  20
ENDBRANCH  18  19
ENDBRANCH  17  18
ENDBRANCH  15  17
ENDBRANCH   4  15
TORSDOF 7
ENDMDL
MODEL 4
REMARK minimizedAffinity -7.11275816
REMARK minimizedRMSD -1
REMARK  Name = *****
REMARK  7 active torsions:
REMARK  status: ('A' for Active; 'I' for Inactive)
REMARK    1  A    between atoms: C_2  and  C_4
REMARK    2  A    between atoms: C_7  and  N_13
REMARK    3  A    between atoms: C_8  and  N_10
REMARK    4  A    between atoms: N_13  and  C_14
REMARK    5  A    between atoms: C_14  and  C_15
REMARK    6  A    between atoms: C_15  and  C_16
REMARK    7  A    between atoms: C_16  and  N_17
REMARK                            x       y       z     vdW  Elec       q    Type
REMARK                         _______ _______ _______ _____ _____    ______ ____
ROOT
ATOM      1  C   UNL A   1     -17.403 206.312 112.205  0.00  0.00    +0.039 A 
ATOM      2  C   UNL A   1     -16.467 206.440 111.183  0.00  0.00    +0.015 A 
ATOM      3  C   UNL A   1     -15.145 206.013 111.370  0.00  0.00    +0.026 A 
ATOM      4  C   UNL A   1     -14.715 205.457 112.584  0.00  0.00    +0.054 A 
ATOM      5  C   UNL A   1     -15.682 205.349 113.616  0.00  0.00    +0.097 A 
ATOM      6  C   UNL A   1     -17.016 205.755 113.426  0.00  0.00    +0.043 A 
ENDROOT
BRANCH   1   8
ATOM      7  O   UNL A   1     -19.713 206.419 112.696  0.00  0.00    -0.270 OA
ATOM      8  C   UNL A   1     -18.800 206.745 111.950  0.00  0.00    +0.242 C 
ATOM      9  N   UNL A   1     -19.030 207.493 110.832  0.00  0.00    -0.325 N 
ATOM     10  H   UNL A   1     -19.998 207.705 110.625  0.00  0.00    +0.145 HD
ATOM     11  H   UNL A   1     -18.360 207.594 110.081  0.00  0.00    +0.145 HD
ENDBRANCH   1   8
BRANCH   5  12
ATOM     12  N   UNL A   1     -15.327 204.818 114.947  0.00  0.00    -0.185 N 
ATOM     13  O   UNL A   1     -15.370 205.585 115.922  0.00  0.00    -0.172 OA
ATOM     14  O   UNL A   1     -15.049 203.611 115.029  0.00  0.00    -0.777 OA
ENDBRANCH   5  12
BRANCH   4  15
ATOM     15  N   UNL A   1     -13.446 204.903 112.708  0.00  0.00    -0.342 N 
ATOM     16  H   UNL A   1     -13.256 204.545 113.648  0.00  0.00    +0.146 HD
BRANCH  15  17
ATOM     17  C   UNL A   1     -12.283 205.298 111.927  0.00  0.00    +0.103 C 
BRANCH  17  18
ATOM     18  C   UNL A   1     -11.578 206.479 112.608  0.00  0.00    +0.034 C 
BRANCH  18  19
ATOM     19  C   UNL A   1     -11.057 206.092 114.000  0.00  0.00    +0.086 C 
BRANCH  19  20
ATOM     20  N   UNL A   1     -12.048 206.192 115.090  0.00  0.00    -0.298 NA
ATOM     21  C   UNL A   1     -12.328 207.581 115.521  0.00  0.00    +0.112 C 
ATOM     22  C   UNL A   1     -11.151 208.259 116.236  0.00  0.00    +0.175 C 
ATOM     23  O   UNL A   1     -10.757 207.508 117.392  0.00  0.00    -0.377 OA
ATOM     24  C   UNL A   1     -10.407 206.166 117.035  0.00  0.00    +0.175 C 
ATOM     25  C   UNL A   1     -11.554 205.456 116.284  0.00  0.00    +0.112 C 
ENDBRANCH  19  20
ENDBRANCH  18  19
ENDBRANCH  17  18
ENDBRANCH  15  17
ENDBRANCH   4  15
TORSDOF 7
ENDMDL
MODEL 5
REMARK minimizedAffinity -7.07243443
REMARK minimizedRMSD -1
REMARK  Name = *****
REMARK  7 active torsions:
REMARK  status: ('A' for Active; 'I' for Inactive)
REMARK    1  A    between atoms: C_2  and  C_4
REMARK    2  A    between atoms: C_7  and  N_13
REMARK    3  A    between atoms: C_8  and  N_10
REMARK    4  A    between atoms: N_13  and  C_14
REMARK    5  A    between atoms: C_14  and  C_15
REMARK    6  A    between atoms: C_15  and  C_16
REMARK    7  A    between atoms: C_16  and  N_17
REMARK                            x       y       z     vdW  Elec       q    Type
REMARK                         _______ _______ _______ _____ _____    ______ ____
ROOT
ATOM      1  C   UNL A   1     -17.039 206.239 112.156  0.00  0.00    +0.039 A 
ATOM      2  C   UNL A   1     -16.131 206.408 111.115  0.00  0.00    +0.015 A 
ATOM      3  C   UNL A   1     -14.783 206.063 111.283  0.00  0.00    +0.026 A 
ATOM      4  C   UNL A   1     -14.299 205.551 112.497  0.00  0.00    +0.054 A 
ATOM      5  C   UNL A   1     -15.239 205.401 113.548  0.00  0.00    +0.097 A 
ATOM      6  C   UNL A   1     -16.598 205.724 113.377  0.00  0.00    +0.043 A 
ENDROOT
BRANCH   1   8
ATOM      7  O   UNL A   1     -18.781 207.490 111.160  0.00  0.00    -0.270 OA
ATOM      8  C   UNL A   1     -18.464 206.585 111.920  0.00  0.00    +0.242 C 
ATOM      9  N   UNL A   1     -19.404 205.874 112.608  0.00  0.00    -0.325 N 
ATOM     10  H   UNL A   1     -20.364 206.180 112.504  0.00  0.00    +0.145 HD
ATOM     11  H   UNL A   1     -19.187 205.283 113.399  0.00  0.00    +0.145 HD
ENDBRANCH   1   8
BRANCH   5  12
ATOM     12  N   UNL A   1     -14.830 204.911 114.879  0.00  0.00    -0.185 N 
ATOM     13  O   UNL A   1     -13.953 205.537 115.496  0.00  0.00    -0.172 OA
ATOM     14  O   UNL A   1     -15.424 203.922 115.335  0.00  0.00    -0.777 OA
ENDBRANCH   5  12
BRANCH   4  15
ATOM     15  N   UNL A   1     -12.997 205.077 112.605  0.00  0.00    -0.342 N 
ATOM     16  H   UNL A   1     -12.698 204.948 113.575  0.00  0.00    +0.146 HD
BRANCH  15  17
ATOM     17  C   UNL A   1     -11.939 205.315 111.636  0.00  0.00    +0.103 C 
BRANCH  17  18
ATOM     18  C   UNL A   1     -11.244 206.648 111.945  0.00  0.00    +0.034 C 
BRANCH  18  19
ATOM     19  C   UNL A   1     -10.976 206.804 113.449  0.00  0.00    +0.086 C 
BRANCH  19  20
ATOM     20  N   UNL A   1      -9.560 206.688 113.848  0.00  0.00    -0.298 NA
ATOM     21  C   UNL A   1      -9.280 207.178 115.218  0.00  0.00    +0.112 C 
ATOM     22  C   UNL A   1      -9.425 208.699 115.375  0.00  0.00    +0.175 C 
ATOM     23  O   UNL A   1      -8.552 209.389 114.470  0.00  0.00    -0.377 OA
ATOM     24  C   UNL A   1      -8.815 209.008 113.115  0.00  0.00    +0.175 C 
ATOM     25  C   UNL A   1      -8.711 207.480 112.919  0.00  0.00    +0.112 C 
ENDBRANCH  19  20
ENDBRANCH  18  19
ENDBRANCH  17  18
ENDBRANCH  15  17
ENDBRANCH   4  15
TORSDOF 7
ENDMDL
MODEL 6
REMARK minimizedAffinity -6.92925835
REMARK minimizedRMSD -1
REMARK  Name = *****
REMARK  7 active torsions:
REMARK  status: ('A' for Active; 'I' for Inactive)
REMARK    1  A    between atoms: C_2  and  C_4
REMARK    2  A    between atoms: C_7  and  N_13
REMARK    3  A    between atoms: C_8  and  N_10
REMARK    4  A    between atoms: N_13  and  C_14
REMARK    5  A    between atoms: C_14  and  C_15
REMARK    6  A    between atoms: C_15  and  C_16
REMARK    7  A    between atoms: C_16  and  N_17
REMARK                            x       y       z     vdW  Elec       q    Type
REMARK                         _______ _______ _______ _____ _____    ______ ____
ROOT
ATOM      1  C   UNL A   1     -15.866 206.129 112.173  0.00  0.00    +0.039 A 
ATOM      2  C   UNL A   1     -15.342 206.091 110.883  0.00  0.00    +0.015 A 
ATOM      3  C   UNL A   1     -13.958 206.003 110.680  0.00  0.00    +0.026 A 
ATOM      4  C   UNL A   1     -13.055 205.962 111.754  0.00  0.00    +0.054 A 
ATOM      5  C   UNL A   1     -13.611 206.016 113.058  0.00  0.00    +0.097 A 
ATOM      6  C   UNL A   1     -15.001 206.081 113.268  0.00  0.00    +0.043 A 
ENDROOT
BRANCH   1   8
ATOM      7  O   UNL A   1     -17.910 205.514 113.189  0.00  0.00    -0.270 OA
ATOM      8  C   UNL A   1     -17.340 206.186 112.340  0.00  0.00    +0.242 C 
ATOM      9  N   UNL A   1     -18.037 206.992 111.487  0.00  0.00    -0.325 N 
ATOM     10  H   UNL A   1     -19.047 206.952 111.557  0.00  0.00    +0.145 HD
ATOM     11  H   UNL A   1     -17.643 207.382 110.642  0.00  0.00    +0.145 HD
ENDBRANCH   1   8
BRANCH   5  12
ATOM     12  N   UNL A   1     -12.751 206.022 114.258  0.00  0.00    -0.185 N 
ATOM     13  O   UNL A   1     -12.177 204.970 114.580  0.00  0.00    -0.172 OA
ATOM     14  O   UNL A   1     -12.608 207.100 114.856  0.00  0.00    -0.777 OA
ENDBRANCH   5  12
BRANCH   4  15
ATOM     15  N   UNL A   1     -11.702 205.726 111.543  0.00  0.00    -0.342 N 
ATOM     16  H   UNL A   1     -11.303 205.062 112.211  0.00  0.00    +0.146 HD
BRANCH  15  17
ATOM     17  C   UNL A   1     -10.771 206.677 110.954  0.00  0.00    +0.103 C 
BRANCH  17  18
ATOM     18  C   UNL A   1     -10.325 207.691 112.016  0.00  0.00    +0.034 C 
BRANCH  18  19
ATOM     19  C   UNL A   1      -8.887 207.417 112.482  0.00  0.00    +0.086 C 
BRANCH  19  20
ATOM     20  N   UNL A   1      -8.237 208.533 113.195  0.00  0.00    -0.298 NA
ATOM     21  C   UNL A   1      -6.877 208.218 113.691  0.00  0.00    +0.112 C 
ATOM     22  C   UNL A   1      -6.856 207.191 114.833  0.00  0.00    +0.175 C 
ATOM     23  O   UNL A   1      -7.638 207.649 115.944  0.00  0.00    -0.377 OA
ATOM     24  C   UNL A   1      -8.988 207.912 115.545  0.00  0.00    +0.175 C 
ATOM     25  C   UNL A   1      -9.054 208.918 114.376  0.00  0.00    +0.112 C 
ENDBRANCH  19  20
ENDBRANCH  18  19
ENDBRANCH  17  18
ENDBRANCH  15  17
ENDBRANCH   4  15
TORSDOF 7
ENDMDL
MODEL 7
REMARK minimizedAffinity -6.64073038
REMARK minimizedRMSD -1
REMARK  Name = *****
REMARK  7 active torsions:
REMARK  status: ('A' for Active; 'I' for Inactive)
REMARK    1  A    between atoms: C_2  and  C_4
REMARK    2  A    between atoms: C_7  and  N_13
REMARK    3  A    between atoms: C_8  and  N_10
REMARK    4  A    between atoms: N_13  and  C_14
REMARK    5  A    between atoms: C_14  and  C_15
REMARK    6  A    between atoms: C_15  and  C_16
REMARK    7  A    between atoms: C_16  and  N_17
REMARK                            x       y       z     vdW  Elec       q    Type
REMARK                         _______ _______ _______ _____ _____    ______ ____
ROOT
ATOM      1  C   UNL A   1     -12.076 206.138 111.492  0.00  0.00    +0.039 A 
ATOM      2  C   UNL A   1     -11.525 205.617 112.660  0.00  0.00    +0.015 A 
ATOM      3  C   UNL A   1     -12.342 205.009 113.622  0.00  0.00    +0.026 A 
ATOM      4  C   UNL A   1     -13.732 204.911 113.455  0.00  0.00    +0.054 A 
ATOM      5  C   UNL A   1     -14.272 205.461 112.265  0.00  0.00    +0.097 A 
ATOM      6  C   UNL A   1     -13.454 206.053 111.285  0.00  0.00    +0.043 A 
ENDROOT
BRANCH   1   8
ATOM      7  O   UNL A   1     -11.528 206.918 109.328  0.00  0.00    -0.270 OA
ATOM      8  C   UNL A   1     -11.167 206.742 110.485  0.00  0.00    +0.242 C 
ATOM      9  N   UNL A   1      -9.904 207.062 110.891  0.00  0.00    -0.325 N 
ATOM     10  H   UNL A   1      -9.271 207.390 110.172  0.00  0.00    +0.145 HD
ATOM     11  H   UNL A   1      -9.497 206.734 111.756  0.00  0.00    +0.145 HD
ENDBRANCH   1   8
BRANCH   5  12
ATOM     12  N   UNL A   1     -15.726 205.451 112.007  0.00  0.00    -0.185 N 
ATOM     13  O   UNL A   1     -16.374 204.438 112.313  0.00  0.00    -0.172 OA
ATOM     14  O   UNL A   1     -16.234 206.483 111.540  0.00  0.00    -0.777 OA
ENDBRANCH   5  12
BRANCH   4  15
ATOM     15  N   UNL A   1     -14.510 204.178 114.343  0.00  0.00    -0.342 N 
ATOM     16  H   UNL A   1     -15.199 203.584 113.874  0.00  0.00    +0.146 HD
BRANCH  15  17
ATOM     17  C   UNL A   1     -14.836 204.586 115.701  0.00  0.00    +0.103 C 
BRANCH  17  18
ATOM     18  C   UNL A   1     -15.127 206.092 115.733  0.00  0.00    +0.034 C 
BRANCH  18  19
ATOM     19  C   UNL A   1     -14.052 206.854 116.523  0.00  0.00    +0.086 C 
BRANCH  19  20
ATOM     20  N   UNL A   1     -13.135 206.007 117.310  0.00  0.00    -0.298 NA
ATOM     21  C   UNL A   1     -13.356 206.082 118.773  0.00  0.00    +0.112 C 
ATOM     22  C   UNL A   1     -12.981 207.437 119.389  0.00  0.00    +0.175 C 
ATOM     23  O   UNL A   1     -11.605 207.749 119.133  0.00  0.00    -0.377 OA
ATOM     24  C   UNL A   1     -11.336 207.757 117.726  0.00  0.00    +0.175 C 
ATOM     25  C   UNL A   1     -11.730 206.421 117.060  0.00  0.00    +0.112 C 
ENDBRANCH  19  20
ENDBRANCH  18  19
ENDBRANCH  17  18
ENDBRANCH  15  17
ENDBRANCH   4  15
TORSDOF 7
ENDMDL
MODEL 8
REMARK minimizedAffinity -6.62494135
REMARK minimizedRMSD -1
REMARK  Name = *****
REMARK  7 active torsions:
REMARK  status: ('A' for Active; 'I' for Inactive)
REMARK    1  A    between atoms: C_2  and  C_4
REMARK    2  A    between atoms: C_7  and  N_13
REMARK    3  A    between atoms: C_8  and  N_10
REMARK    4  A    between atoms: N_13  and  C_14
REMARK    5  A    between atoms: C_14  and  C_15
REMARK    6  A    between atoms: C_15  and  C_16
REMARK    7  A    between atoms: C_16  and  N_17
REMARK                            x       y       z     vdW  Elec       q    Type
REMARK                         _______ _______ _______ _____ _____    ______ ____
ROOT
ATOM      1  C   UNL A   1     -12.047 206.250 111.631  0.00  0.00    +0.039 A 
ATOM      2  C   UNL A   1     -11.493 206.423 112.896  0.00  0.00    +0.015 A 
ATOM      3  C   UNL A   1     -12.135 205.908 114.030  0.00  0.00    +0.026 A 
ATOM      4  C   UNL A   1     -13.352 205.215 113.939  0.00  0.00    +0.054 A 
ATOM      5  C   UNL A   1     -13.905 205.064 112.641  0.00  0.00    +0.097 A 
ATOM      6  C   UNL A   1     -13.254 205.559 111.496  0.00  0.00    +0.043 A 
ENDROOT
BRANCH   1   8
ATOM      7  O   UNL A   1     -11.900 207.084 109.423  0.00  0.00    -0.270 OA
ATOM      8  C   UNL A   1     -11.314 206.782 110.454  0.00  0.00    +0.242 C 
ATOM      9  N   UNL A   1      -9.957 206.889 110.557  0.00  0.00    -0.325 N 
ATOM     10  H   UNL A   1      -9.464 207.169 109.717  0.00  0.00    +0.145 HD
ATOM     11  H   UNL A   1      -9.417 206.449 111.289  0.00  0.00    +0.145 HD
ENDBRANCH   1   8
BRANCH   5  12
ATOM     12  N   UNL A   1     -15.202 204.390 112.435  0.00  0.00    -0.185 N 
ATOM     13  O   UNL A   1     -16.121 205.027 111.897  0.00  0.00    -0.172 OA
ATOM     14  O   UNL A   1     -15.289 203.197 112.768  0.00  0.00    -0.777 OA
ENDBRANCH   5  12
BRANCH   4  15
ATOM     15  N   UNL A   1     -13.902 204.584 115.048  0.00  0.00    -0.342 N 
ATOM     16  H   UNL A   1     -14.123 203.599 114.879  0.00  0.00    +0.146 HD
BRANCH  15  17
ATOM     17  C   UNL A   1     -14.681 205.245 116.084  0.00  0.00    +0.103 C 
BRANCH  17  18
ATOM     18  C   UNL A   1     -14.620 204.425 117.380  0.00  0.00    +0.034 C 
BRANCH  18  19
ATOM     19  C   UNL A   1     -15.715 203.349 117.414  0.00  0.00    +0.086 C 
BRANCH  19  20
ATOM     20  N   UNL A   1     -15.530 202.299 118.434  0.00  0.00    -0.298 NA
ATOM     21  C   UNL A   1     -16.119 200.991 118.064  0.00  0.00    +0.112 C 
ATOM     22  C   UNL A   1     -17.654 200.989 118.028  0.00  0.00    +0.175 C 
ATOM     23  O   UNL A   1     -18.193 201.373 119.301  0.00  0.00    -0.377 OA
ATOM     24  C   UNL A   1     -17.712 202.664 119.691  0.00  0.00    +0.175 C 
ATOM     25  C   UNL A   1     -16.169 202.720 119.709  0.00  0.00    +0.112 C 
ENDBRANCH  19  20
ENDBRANCH  18  19
ENDBRANCH  17  18
ENDBRANCH  15  17
ENDBRANCH   4  15
TORSDOF 7
ENDMDL
MODEL 9
REMARK minimizedAffinity -6.53766632
REMARK minimizedRMSD -1
REMARK  Name = *****
REMARK  7 active torsions:
REMARK  status: ('A' for Active; 'I' for Inactive)
REMARK    1  A    between atoms: C_2  and  C_4
REMARK    2  A    between atoms: C_7  and  N_13
REMARK    3  A    between atoms: C_8  and  N_10
REMARK    4  A    between atoms: N_13  and  C_14
REMARK    5  A    between atoms: C_14  and  C_15
REMARK    6  A    between atoms: C_15  and  C_16
REMARK    7  A    between atoms: C_16  and  N_17
REMARK                            x       y       z     vdW  Elec       q    Type
REMARK                         _______ _______ _______ _____ _____    ______ ____
ROOT
ATOM      1  C   UNL A   1     -14.792 205.652 111.973  0.00  0.00    +0.039 A 
ATOM      2  C   UNL A   1     -14.060 205.150 113.045  0.00  0.00    +0.015 A 
ATOM      3  C   UNL A   1     -12.663 205.261 113.067  0.00  0.00    +0.026 A 
ATOM      4  C   UNL A   1     -11.955 205.866 112.017  0.00  0.00    +0.054 A 
ATOM      5  C   UNL A   1     -12.720 206.357 110.929  0.00  0.00    +0.097 A 
ATOM      6  C   UNL A   1     -14.125 206.268 110.912  0.00  0.00    +0.043 A 
ENDROOT
BRANCH   1   8
ATOM      7  O   UNL A   1     -16.827 204.579 112.521  0.00  0.00    -0.270 OA
ATOM      8  C   UNL A   1     -16.273 205.543 112.009  0.00  0.00    +0.242 C 
ATOM      9  N   UNL A   1     -16.990 206.544 111.422  0.00  0.00    -0.325 N 
ATOM     10  H   UNL A   1     -17.993 206.412 111.378  0.00  0.00    +0.145 HD
ATOM     11  H   UNL A   1     -16.584 207.231 110.802  0.00  0.00    +0.145 HD
ENDBRANCH   1   8
BRANCH   5  12
ATOM     12  N   UNL A   1     -12.074 206.973 109.753  0.00  0.00    -0.185 N 
ATOM     13  O   UNL A   1     -12.632 207.939 109.209  0.00  0.00    -0.172 OA
ATOM     14  O   UNL A   1     -10.974 206.520 109.399  0.00  0.00    -0.777 OA
ENDBRANCH   5  12
BRANCH   4  15
ATOM     15  N   UNL A   1     -10.589 206.102 112.118  0.00  0.00    -0.342 N 
ATOM     16  H   UNL A   1     -10.038 205.242 112.176  0.00  0.00    +0.146 HD
BRANCH  15  17
ATOM     17  C   UNL A   1      -9.988 207.287 112.711  0.00  0.00    +0.103 C 
BRANCH  17  18
ATOM     18  C   UNL A   1      -8.841 206.875 113.643  0.00  0.00    +0.034 C 
BRANCH  18  19
ATOM     19  C   UNL A   1      -9.226 207.056 115.119  0.00  0.00    +0.086 C 
BRANCH  19  20
ATOM     20  N   UNL A   1     -10.629 206.736 115.444  0.00  0.00    -0.298 NA
ATOM     21  C   UNL A   1     -11.292 207.745 116.302  0.00  0.00    +0.112 C 
ATOM     22  C   UNL A   1     -10.744 207.799 117.735  0.00  0.00    +0.175 C 
ATOM     23  O   UNL A   1     -10.870 206.523 118.376  0.00  0.00    -0.377 OA
ATOM     24  C   UNL A   1     -10.192 205.506 117.629  0.00  0.00    +0.175 C 
ATOM     25  C   UNL A   1     -10.691 205.439 116.170  0.00  0.00    +0.112 C 
ENDBRANCH  19  20
ENDBRANCH  18  19
ENDBRANCH  17  18
ENDBRANCH  15  17
ENDBRANCH   4  15
TORSDOF 7
ENDMDL
