ROOT
REMARK  Name = Estrogen receptor pdbqt/ligands_pdbqt/5toa_ligand_B.pdb
REMARK                            x       y       z     vdW  Elec       q    Type
REMARK                         _______ _______ _______ _____ _____    ______ ____
ATOM      1  C1  EST B 601      19.279  31.623  44.865  0.00  0.00    -0.001 A 
ATOM      2  C2  EST B 601      19.706  30.319  45.095  0.00  0.00    +0.042 A 
ATOM      3  C3  EST B 601      19.369  29.285  44.226  0.00  0.00    +0.195 A 
ATOM      4  O3  EST B 601      19.805  28.021  44.485  0.00  0.00    -0.287 OA
ATOM      5  C4  EST B 601      18.592  29.527  43.097  0.00  0.00    +0.037 A 
ATOM      6  C5  EST B 601      18.140  30.812  42.820  0.00  0.00    -0.023 A 
ATOM      7  C6  EST B 601      17.296  31.065  41.589  0.00  0.00    +0.026 C 
ATOM      8  C7  EST B 601      16.591  32.414  41.679  0.00  0.00    +0.005 C 
ATOM      9  C8  EST B 601      17.573  33.505  42.074  0.00  0.00    +0.004 C 
ATOM     10  C9  EST B 601      18.044  33.303  43.509  0.00  0.00    +0.022 C 
ATOM     11  C10 EST B 601      18.506  31.914  43.748  0.00  0.00    -0.026 A 
ATOM     12  C11 EST B 601      19.110  34.337  43.877  0.00  0.00    +0.004 C 
ATOM     13  C12 EST B 601      18.546  35.755  43.754  0.00  0.00    +0.003 C 
ATOM     14  C13 EST B 601      17.975  35.962  42.358  0.00  0.00    +0.028 C 
ATOM     15  C14 EST B 601      16.951  34.891  42.043  0.00  0.00    +0.003 C 
ATOM     16  C15 EST B 601      16.289  35.376  40.760  0.00  0.00    +0.003 C 
ATOM     17  C16 EST B 601      16.326  36.903  40.896  0.00  0.00    +0.033 C 
ATOM     18  C17 EST B 601      17.167  37.224  42.133  0.00  0.00    +0.152 C 
ATOM     19  O17 EST B 601      18.018  38.350  41.902  0.00  0.00    -0.223 OA
ATOM     20  C18 EST B 601      19.098  35.939  41.330  0.00  0.00    +0.003 C 
ATOM     21  H   EST B 601      19.582  27.320  43.904  0.00  0.00    +0.000 HD
ATOM     22  H   EST B 601      18.590  38.172  41.139  0.00  0.00    +0.000 HD
ENDROOT
TORSDOF 0
TER 
