ROOT
REMARK  Name = Estrogen receptor pdbqt/ligands_pdbqt/5toa_ligand_A.pdb
REMARK                            x       y       z     vdW  Elec       q    Type
REMARK                         _______ _______ _______ _____ _____    ______ ____
ATOM      1  C1  EST A 601      18.513  43.666  12.836  0.00  0.00    -0.001 A 
ATOM      2  C2  EST A 601      18.019  42.871  11.806  0.00  0.00    +0.042 A 
ATOM      3  C3  EST A 601      18.270  41.501  11.764  0.00  0.00    +0.195 A 
ATOM      4  O3  EST A 601      17.771  40.753  10.742  0.00  0.00    -0.287 OA
ATOM      5  C4  EST A 601      19.027  40.886  12.754  0.00  0.00    +0.037 A 
ATOM      6  C5  EST A 601      19.543  41.633  13.805  0.00  0.00    -0.023 A 
ATOM      7  C6  EST A 601      20.365  40.947  14.873  0.00  0.00    +0.026 C 
ATOM      8  C7  EST A 601      21.194  41.970  15.637  0.00  0.00    +0.005 C 
ATOM      9  C8  EST A 601      20.294  43.095  16.116  0.00  0.00    +0.004 C 
ATOM     10  C9  EST A 601      19.810  43.941  14.946  0.00  0.00    +0.022 C 
ATOM     11  C10 EST A 601      19.270  43.095  13.852  0.00  0.00    -0.026 A 
ATOM     12  C11 EST A 601      18.817  45.001  15.434  0.00  0.00    +0.004 C 
ATOM     13  C12 EST A 601      19.457  45.910  16.490  0.00  0.00    +0.003 C 
ATOM     14  C13 EST A 601      20.046  45.070  17.616  0.00  0.00    +0.028 C 
ATOM     15  C14 EST A 601      21.014  44.059  17.040  0.00  0.00    +0.003 C 
ATOM     16  C15 EST A 601      21.754  43.498  18.244  0.00  0.00    +0.003 C 
ATOM     17  C16 EST A 601      21.806  44.682  19.213  0.00  0.00    +0.033 C 
ATOM     18  C17 EST A 601      20.929  45.788  18.620  0.00  0.00    +0.152 C 
ATOM     19  O17 EST A 601      20.151  46.418  19.640  0.00  0.00    -0.223 OA
ATOM     20  C18 EST A 601      18.925  44.368  18.377  0.00  0.00    +0.003 C 
ATOM     21  H   EST A 601      17.260  41.159  10.070  0.00  0.00    +0.000 HD
ATOM     22  H   EST A 601      19.607  45.752  20.090  0.00  0.00    +0.000 HD
ENDROOT
TORSDOF 0
TER 
