REMARK  Name = *****
REMARK  2 active torsions:
REMARK  status: ('A' for Active; 'I' for Inactive)
REMARK    1  A    between atoms: C_5  and  C_8
REMARK    2  A    between atoms: C_14  and  C_16
REMARK                            x       y       z     vdW  Elec       q    Type
REMARK                         _______ _______ _______ _____ _____    ______ ____
ROOT
ATOM      1  C   UNL A   1       4.629  -0.079   0.402  0.00  0.00    +0.249 C 
ATOM      2  O   UNL A   1       5.097   0.871   1.024  0.00  0.00    -0.270 OA
ATOM      3  N   UNL A   1       5.374  -1.095  -0.150  0.00  0.00    -0.265 N 
ATOM      4  C   UNL A   1       6.739  -1.176  -0.021  0.00  0.00    +0.147 A 
ATOM      5  N   UNL A   1       7.445  -1.794  -0.969  0.00  0.00    -0.158 NA
ATOM      6  N   UNL A   1       8.722  -1.572  -0.607  0.00  0.00    -0.280 N 
ATOM      7  C   UNL A   1       8.849  -1.006   0.632  0.00  0.00    +0.035 A 
ATOM      8  C   UNL A   1       7.561  -0.706   1.026  0.00  0.00    +0.068 A 
ATOM      9  C   UNL A   1      10.158  -0.802   1.286  0.00  0.00    +0.065 C 
ATOM     10  H   UNL A   1       5.015  -1.702  -0.867  0.00  0.00    +0.157 HD
ATOM     11  H   UNL A   1       9.457  -1.839  -1.256  0.00  0.00    +0.189 HD
ENDROOT
BRANCH   1  16
ATOM     12 BR   UNL A   1      -1.539  -0.251  -0.031  0.00  0.00    -0.050 Br
ATOM     13  C   UNL A   1       0.349  -0.181   0.036  0.00  0.00    +0.018 A 
ATOM     14  C   UNL A   1       1.104  -1.053  -0.744  0.00  0.00    +0.016 A 
ATOM     15  C   UNL A   1       2.504  -1.027  -0.664  0.00  0.00    +0.014 A 
ATOM     16  C   UNL A   1       3.149  -0.128   0.194  0.00  0.00    +0.037 A 
ATOM     17  C   UNL A   1       2.368   0.767   0.941  0.00  0.00    +0.014 A 
ATOM     18  C   UNL A   1       0.976   0.739   0.870  0.00  0.00    +0.016 A 
ENDBRANCH   1  16
TORSDOF 1
