REMARK  Name = *****
REMARK  6 active torsions:
REMARK  status: ('A' for Active; 'I' for Inactive)
REMARK    1  A    between atoms: N_1  and  C_3
REMARK    2  A    between atoms: C_7  and  C_9
REMARK    3  A    between atoms: N_11  and  C_20
REMARK    4  A    between atoms: C_20  and  C_21
REMARK    5  A    between atoms: N_23  and  C_24
REMARK    6  A    between atoms: C_24  and  C_25
REMARK                            x       y       z     vdW  Elec       q    Type
REMARK                         _______ _______ _______ _____ _____    ______ ____
ROOT
ATOM      1  C   UNL A   1      -3.234   2.610   0.920  0.00  0.00    +0.099 A 
ATOM      2  N   UNL A   1      -3.591   2.901  -0.308  0.00  0.00    -0.167 NA
ATOM      3  N   UNL A   1      -4.129   4.175  -0.460  0.00  0.00    -0.220 N 
ATOM      4  C   UNL A   1      -3.835   5.154   0.479  0.00  0.00    +0.276 A 
ATOM      5  O   UNL A   1      -3.555   6.322   0.270  0.00  0.00    -0.266 OA
ATOM      6  C   UNL A   1      -4.168   4.661   1.812  0.00  0.00    +0.050 A 
ATOM      7  C   UNL A   1      -3.914   3.317   2.045  0.00  0.00    +0.015 A 
ATOM      8  C   UNL A   1      -4.558   2.676   3.104  0.00  0.00    +0.011 A 
ATOM      9  C   UNL A   1      -5.461   3.406   3.893  0.00  0.00    +0.001 A 
ATOM     10  C   UNL A   1      -5.721   4.760   3.631  0.00  0.00    +0.001 A 
ATOM     11  C   UNL A   1      -5.055   5.402   2.588  0.00  0.00    +0.014 A 
ENDROOT
BRANCH   1  16
ATOM     12  C   UNL A   1      -0.186   0.955   2.479  0.00  0.00    +0.076 A 
ATOM     13  C   UNL A   1       0.301   0.197   1.407  0.00  0.00    +0.028 A 
ATOM     14  C   UNL A   1      -0.384   0.214   0.194  0.00  0.00    +0.003 A 
ATOM     15  C   UNL A   1      -1.562   0.958   0.065  0.00  0.00    +0.010 A 
ATOM     16  C   UNL A   1      -2.085   1.681   1.151  0.00  0.00    +0.005 A 
ATOM     17  C   UNL A   1      -1.375   1.695   2.360  0.00  0.00    +0.038 A 
BRANCH  12  18
ATOM     18  N   UNL A   1       0.588   1.020   3.726  0.00  0.00    -0.187 N 
ATOM     19  O   UNL A   1       1.578   0.283   3.830  0.00  0.00    -0.173 OA
ATOM     20  O   UNL A   1       0.203   1.810   4.600  0.00  0.00    -0.777 OA
ENDBRANCH  12  18
ENDBRANCH   1  16
BRANCH   3  21
ATOM     21  C   UNL A   1      -5.162   4.481  -1.429  0.00  0.00    +0.242 C 
BRANCH  21  22
ATOM     22  C   UNL A   1      -6.541   3.972  -0.973  0.00  0.00    +0.235 C 
ATOM     23  O   UNL A   1      -7.546   4.681  -1.012  0.00  0.00    -0.274 OA
ATOM     24  N   UNL A   1      -6.606   2.629  -0.663  0.00  0.00    -0.311 N 
ATOM     25  H   UNL A   1      -5.733   2.181  -0.394  0.00  0.00    +0.149 HD
BRANCH  24  26
ATOM     26  C   UNL A   1      -7.864   2.010  -0.273  0.00  0.00    +0.135 C 
BRANCH  26  27
ATOM     27  C   UNL A   1      -7.754   0.490  -0.136  0.00  0.00    +0.135 C 
ATOM     28  O   UNL A   1      -6.881   0.144   0.962  0.00  0.00    -0.375 OA
ATOM     29  C   UNL A   1      -7.473  -0.947   1.684  0.00  0.00    +0.160 C 
ATOM     30  C   UNL A   1      -8.664  -1.428   0.883  0.00  0.00    +0.030 C 
ATOM     31  C   UNL A   1      -9.090  -0.175   0.160  0.00  0.00    +0.035 C 
ENDBRANCH  26  27
ENDBRANCH  24  26
ENDBRANCH  21  22
ENDBRANCH   3  21
TORSDOF 6
