REMARK  Name = *****
REMARK  2 active torsions:
REMARK  status: ('A' for Active; 'I' for Inactive)
REMARK    1  A    between atoms: C_11  and  C_13
REMARK    2  A    between atoms: C_13  and  N_14
REMARK                            x       y       z     vdW  Elec       q    Type
REMARK                         _______ _______ _______ _____ _____    ______ ____
ROOT
ATOM      1  N   UNL A   1      -1.166   1.463  -0.178  0.00  0.00    -0.270 N 
ATOM      2  C   UNL A   1       0.073   0.726  -0.074  0.00  0.00    +0.040 A 
ATOM      3  C   UNL A   1       1.323   1.362  -0.043  0.00  0.00    +0.024 A 
ATOM      4  C   UNL A   1       2.514   0.629   0.031  0.00  0.00    +0.002 A 
ATOM      5  C   UNL A   1       2.477  -0.756   0.085  0.00  0.00    +0.000 A 
ATOM      6  C   UNL A   1       1.249  -1.410   0.088  0.00  0.00    +0.005 A 
ATOM      7  C   UNL A   1       0.046  -0.684   0.013  0.00  0.00    -0.026 A 
ATOM      8  C   UNL A   1      -1.240  -1.471   0.042  0.00  0.00    +0.038 C 
ATOM      9  C   UNL A   1      -2.450  -0.641  -0.341  0.00  0.00    +0.024 C 
ATOM     10  C   UNL A   1      -2.351   0.728   0.298  0.00  0.00    +0.114 C 
ATOM     11  C   UNL A   1      -1.227   2.746  -0.749  0.00  0.00    +0.241 C 
ATOM     12  O   UNL A   1      -0.258   3.349  -1.225  0.00  0.00    -0.273 OA
ENDROOT
BRANCH  11  13
ATOM     13  C   UNL A   1      -2.572   3.441  -0.842  0.00  0.00    +0.239 C 
BRANCH  13  14
ATOM     14  N   UNL A   1      -3.224   3.143  -2.106  0.00  0.00    -0.261 N 
ATOM     15  C   UNL A   1      -3.122   3.858  -3.271  0.00  0.00    +0.111 A 
ATOM     16  C   UNL A   1      -3.887   3.190  -4.202  0.00  0.00    +0.070 A 
ATOM     17  C   UNL A   1      -4.429   2.096  -3.498  0.00  0.00    +0.185 A 
ATOM     18  N   UNL A   1      -4.064   2.090  -2.203  0.00  0.00    -0.150 NA
ATOM     19  N   UNL A   1      -5.285   1.035  -4.002  0.00  0.00    -0.166 N 
ATOM     20  O   UNL A   1      -5.580   1.096  -5.206  0.00  0.00    -0.171 OA
ATOM     21  O   UNL A   1      -5.655   0.148  -3.218  0.00  0.00    -0.776 OA
ENDBRANCH  13  14
ENDBRANCH  11  13
TORSDOF 2
