REMARK  Name = *****
REMARK  7 active torsions:
REMARK  status: ('A' for Active; 'I' for Inactive)
REMARK    1  A    between atoms: C_7  and  C_9
REMARK    2  A    between atoms: C_14  and  N_15
REMARK    3  A    between atoms: C_16  and  C_18
REMARK    4  A    between atoms: C_18  and  N_19
REMARK    5  A    between atoms: N_19  and  C_20
REMARK    6  A    between atoms: N_19  and  S_27
REMARK    7  A    between atoms: S_27  and  C_30
REMARK                            x       y       z     vdW  Elec       q    Type
REMARK                         _______ _______ _______ _____ _____    ______ ____
ROOT
ATOM      1  N   UNL A   1      -4.903   0.645   0.183  0.00  0.00    -0.283 N 
ATOM      2  C   UNL A   1      -4.758  -0.729   0.308  0.00  0.00    +0.236 C 
ATOM      3  O   UNL A   1      -4.014  -1.416  -0.398  0.00  0.00    -0.274 OA
ATOM      4  H   UNL A   1      -5.226   1.151   0.997  0.00  0.00    +0.155 HD
ENDROOT
BRANCH   1  10
ATOM      5  C   UNL A   1      -4.285   1.101  -2.218  0.00  0.00    +0.058 A 
ATOM      6  C   UNL A   1      -3.572   1.931  -3.111  0.00  0.00    +0.015 A 
ATOM      7  C   UNL A   1      -2.938   3.088  -2.662  0.00  0.00    +0.001 A 
ATOM      8  C   UNL A   1      -3.029   3.452  -1.327  0.00  0.00    +0.002 A 
ATOM      9  C   UNL A   1      -3.719   2.631  -0.425  0.00  0.00    +0.024 A 
ATOM     10  C   UNL A   1      -4.294   1.420  -0.842  0.00  0.00    +0.046 A 
BRANCH   5  17
ATOM     11  N   UNL A   1      -6.443  -0.147  -2.533  0.00  0.00    -0.293 N 
ATOM     12  C   UNL A   1      -7.166  -1.305  -3.068  0.00  0.00    +0.136 C 
ATOM     13  C   UNL A   1      -8.585  -0.915  -3.503  0.00  0.00    +0.178 C 
ATOM     14  O   UNL A   1      -9.299  -0.267  -2.435  0.00  0.00    -0.377 OA
ATOM     15  C   UNL A   1      -8.629   0.937  -2.057  0.00  0.00    +0.178 C 
ATOM     16  C   UNL A   1      -7.212   0.641  -1.572  0.00  0.00    +0.136 C 
ATOM     17  C   UNL A   1      -5.099   0.031  -2.874  0.00  0.00    +0.248 C 
ATOM     18  O   UNL A   1      -4.579  -0.595  -3.800  0.00  0.00    -0.270 OA
ENDBRANCH   5  17
ENDBRANCH   1  10
BRANCH   2  19
ATOM     19  C   UNL A   1      -5.586  -1.357   1.430  0.00  0.00    +0.227 C 
BRANCH  19  20
ATOM     20  N   UNL A   1      -4.727  -1.847   2.549  0.00  0.00    -0.199 N 
BRANCH  20  21
ATOM     21  C   UNL A   1      -4.002  -0.833   3.269  0.00  0.00    +0.051 A 
ATOM     22  C   UNL A   1      -2.642  -1.032   3.518  0.00  0.00    +0.026 A 
ATOM     23  C   UNL A   1      -1.888  -0.027   4.130  0.00  0.00    +0.022 A 
ATOM     24  C   UNL A   1      -2.502   1.166   4.506  0.00  0.00    +0.041 A 
ATOM     25  C   UNL A   1      -3.873   1.340   4.331  0.00  0.00    +0.022 A 
ATOM     26  C   UNL A   1      -4.630   0.326   3.740  0.00  0.00    +0.026 A 
ATOM     27 CL   UNL A   1      -1.563   2.438   5.184  0.00  0.00    -0.084 Cl
ENDBRANCH  20  21
BRANCH  20  28
ATOM     28  S   UNL A   1      -5.423  -3.047   3.539  0.00  0.00    +0.043 S 
ATOM     29  O   UNL A   1      -4.516  -3.369   4.611  0.00  0.00    -0.155 OA
ATOM     30  O   UNL A   1      -6.789  -2.630   3.810  0.00  0.00    -0.155 OA
ATOM     31  C   UNL A   1      -5.476  -4.469   2.460  0.00  0.00    +0.218 C 
ENDBRANCH  20  28
ENDBRANCH  19  20
ENDBRANCH   2  19
TORSDOF 6
