REMARK SMILES CS(=O)(=O)N(CC(=O)Nc1ccccc1C(=O)N1CCOCC1)c1ccc(Cl)cc1
REMARK SMILES IDX 9 1 7 2 8 3 10 5 15 6 14 7 13 8 11 9 12 10 16 11 18 12 19 13
REMARK SMILES IDX 23 14 20 15 17 16 22 17 21 18 6 19 5 20 24 21 25 22 30 23
REMARK SMILES IDX 26 24 29 25 27 26 28 27 2 28 3 29 4 30 1 31
REMARK H PARENT 9 4
REMARK Flexibility Score: inf
ROOT
ATOM      1  N   UNL     1      -0.361  -1.475  -0.882  1.00  0.00    -0.324 N 
ATOM      2  C   UNL     1      -1.628  -1.963  -1.123  1.00  0.00     0.245 C 
ATOM      3  O   UNL     1      -1.896  -3.066  -1.597  1.00  0.00    -0.273 OA
ATOM      4  H   UNL     1      -0.335  -0.556  -0.443  1.00  0.00     0.170 HD
ENDROOT
BRANCH   1   5
ATOM      5  C   UNL     1       0.890  -2.057  -1.181  1.00  0.00     0.054 A 
ATOM      6  C   UNL     1       2.066  -1.408  -0.753  1.00  0.00     0.063 A 
ATOM      7  C   UNL     1       3.332  -1.906  -1.095  1.00  0.00     0.016 A 
ATOM      8  C   UNL     1       3.440  -3.089  -1.820  1.00  0.00     0.001 A 
ATOM      9  C   UNL     1       1.020  -3.248  -1.903  1.00  0.00     0.027 A 
ATOM     10  C   UNL     1       2.285  -3.761  -2.216  1.00  0.00     0.002 A 
BRANCH   6  11
ATOM     11  C   UNL     1       1.992  -0.152   0.030  1.00  0.00     0.256 C 
ATOM     12  N   UNL     1       2.536  -0.128   1.311  1.00  0.00    -0.334 N 
ATOM     13  C   UNL     1       2.456   1.110   2.093  1.00  0.00     0.148 C 
ATOM     14  C   UNL     1       2.805  -1.337   2.106  1.00  0.00     0.148 C 
ATOM     15  C   UNL     1       1.953   0.829   3.514  1.00  0.00     0.181 C 
ATOM     16  O   UNL     1       1.422   0.807  -0.488  1.00  0.00    -0.269 OA
ATOM     17  C   UNL     1       3.522  -0.994   3.418  1.00  0.00     0.181 C 
ATOM     18  O   UNL     1       2.800  -0.071   4.247  1.00  0.00    -0.378 OA
ENDBRANCH   6  11
ENDBRANCH   1   5
BRANCH   2  19
ATOM     19  C   UNL     1      -2.744  -1.006  -0.718  1.00  0.00     0.235 C 
BRANCH  19  20
ATOM     20  N   UNL     1      -2.256   0.398  -0.498  1.00  0.00    -0.261 N 
BRANCH  20  21
ATOM     21  C   UNL     1      -2.808   1.369  -1.400  1.00  0.00     0.052 A 
ATOM     22  C   UNL     1      -4.145   1.772  -1.341  1.00  0.00     0.028 A 
ATOM     23  C   UNL     1      -1.965   1.875  -2.396  1.00  0.00     0.028 A 
ATOM     24  C   UNL     1      -4.631   2.702  -2.264  1.00  0.00     0.022 A 
ATOM     25  C   UNL     1      -2.452   2.806  -3.315  1.00  0.00     0.022 A 
ATOM     26  C   UNL     1      -3.783   3.216  -3.245  1.00  0.00     0.041 A 
ATOM     27  Cl  UNL     1      -4.385   4.357  -4.385  1.00  0.00    -0.084 Cl
ENDBRANCH  20  21
BRANCH  20  28
ATOM     28  S   UNL     1      -2.174   0.839   1.144  1.00  0.00     0.232 S 
ATOM     29  O   UNL     1      -3.520   1.009   1.647  1.00  0.00    -0.207 OA
ATOM     30  O   UNL     1      -1.269  -0.106   1.769  1.00  0.00    -0.207 OA
ATOM     31  C   UNL     1      -1.365   2.429   1.106  1.00  0.00     0.183 C 
ENDBRANCH  20  28
ENDBRANCH  19  20
ENDBRANCH   2  19
TORSDOF 6
