REMARK SMILES CC(C)COC(=O)c1ccc2c(c1)/C(=N/Nc1ccc(S(N)(=O)=O)cc1)C(=O)N2
REMARK SMILES IDX 28 1 27 2 14 3 15 4 12 5 11 6 29 7 10 8 9 9 8 10 13 11 16 13
REMARK SMILES IDX 17 15 18 16 26 17 19 18 25 19 20 20 21 21 23 22 24 23 22 24
REMARK SMILES IDX 6 27 7 28 5 29 4 30 2 31 1 32 3 33
REMARK H PARENT 29 12 16 14 22 25 22 26
REMARK Flexibility Score: inf
ROOT
ATOM      1  O   UNL     1       2.409  -3.281   2.791  1.00  0.00    -0.267 OA
ATOM      2  C   UNL     1       1.330  -2.727   2.809  1.00  0.00     0.276 C 
ATOM      3  C   UNL     1       0.912  -1.564   1.899  1.00  0.00     0.158 C 
ATOM      4  N   UNL     1       1.610  -0.947   1.000  1.00  0.00    -0.169 NA
ATOM      5  C   UNL     1      -0.469  -1.257   2.254  1.00  0.00     0.032 A 
ATOM      6  C   UNL     1      -0.818  -2.129   3.284  1.00  0.00     0.051 A 
ATOM      7  N   UNL     1       0.233  -2.985   3.603  1.00  0.00    -0.320 N 
ATOM      8  C   UNL     1      -2.066  -2.086   3.866  1.00  0.00     0.028 A 
ATOM      9  C   UNL     1      -2.969  -1.132   3.375  1.00  0.00     0.018 A 
ATOM     10  C   UNL     1      -2.615  -0.249   2.321  1.00  0.00     0.060 A 
ATOM     11  C   UNL     1      -1.336  -0.308   1.749  1.00  0.00     0.028 A 
ATOM     12  H   UNL     1       0.217  -3.713   4.302  1.00  0.00     0.170 HD
ENDROOT
BRANCH   4  13
ATOM     13  N   UNL     1       2.887  -1.374   0.843  1.00  0.00    -0.278 N 
ATOM     14  H   UNL     1       3.242  -2.203   1.329  1.00  0.00     0.190 HD
BRANCH  13  15
ATOM     15  C   UNL     1       3.706  -0.808  -0.147  1.00  0.00     0.056 A 
ATOM     16  C   UNL     1       3.294   0.285  -0.924  1.00  0.00     0.029 A 
ATOM     17  C   UNL     1       4.996  -1.324  -0.351  1.00  0.00     0.029 A 
ATOM     18  C   UNL     1       4.135   0.841  -1.890  1.00  0.00     0.024 A 
ATOM     19  C   UNL     1       5.846  -0.779  -1.319  1.00  0.00     0.024 A 
ATOM     20  C   UNL     1       5.405   0.297  -2.090  1.00  0.00     0.082 A 
BRANCH  20  21
ATOM     21  S   UNL     1       6.476   1.005  -3.311  1.00  0.00     0.238 S 
ATOM     22  O   UNL     1       7.821   0.534  -3.079  1.00  0.00    -0.207 OA
ATOM     23  O   UNL     1       6.153   2.408  -3.441  1.00  0.00    -0.207 OA
BRANCH  21  24
ATOM     24  N   UNL     1       5.913   0.271  -4.720  1.00  0.00    -0.225 NA
ATOM     25  H   UNL     1       5.263  -0.493  -4.541  1.00  0.00     0.137 HD
ATOM     26  H   UNL     1       5.509   0.990  -5.323  1.00  0.00     0.137 HD
ENDBRANCH  21  24
ENDBRANCH  20  21
ENDBRANCH  13  15
ENDBRANCH   4  13
BRANCH  10  27
ATOM     27  C   UNL     1      -3.641   0.726   1.861  1.00  0.00     0.338 C 
ATOM     28  O   UNL     1      -4.708   0.892   2.429  1.00  0.00    -0.246 OA
BRANCH  27  29
ATOM     29  O   UNL     1      -3.227   1.350   0.731  1.00  0.00    -0.462 OA
BRANCH  29  30
ATOM     30  C   UNL     1      -4.157   2.284   0.157  1.00  0.00     0.236 C 
BRANCH  30  31
ATOM     31  C   UNL     1      -5.192   1.565  -0.720  1.00  0.00     0.021 C 
ATOM     32  C   UNL     1      -4.519   0.799  -1.861  1.00  0.00     0.011 C 
ATOM     33  C   UNL     1      -6.206   2.564  -1.275  1.00  0.00     0.011 C 
ENDBRANCH  30  31
ENDBRANCH  29  30
ENDBRANCH  27  29
ENDBRANCH  10  27
TORSDOF 8
