REMARK  Name = *****
REMARK  10 active torsions:
REMARK  status: ('A' for Active; 'I' for Inactive)
REMARK    1  A    between atoms: N_4  and  N_5
REMARK    2  A    between atoms: N_5  and  C_6
REMARK    3  A    between atoms: C_9  and  S_10
REMARK    4  A    between atoms: S_10  and  N_13
REMARK    5  A    between atoms: C_21  and  C_23
REMARK    6  A    between atoms: C_23  and  O_25
REMARK    7  A    between atoms: O_25  and  C_26
REMARK    8  A    between atoms: C_26  and  C_27
REMARK    9  A    between atoms: C_27  and  C_28
REMARK   10  A    between atoms: C_27  and  C_29
REMARK                            x       y       z     vdW  Elec       q    Type
REMARK                         _______ _______ _______ _____ _____    ______ ____
ROOT
ATOM      1  O   UNL A   1      -2.971  -0.614   0.126  0.00  0.00    -0.268 OA
ATOM      2  C   UNL A   1      -1.770  -0.445   0.058  0.00  0.00    +0.269 C 
ATOM      3  C   UNL A   1      -1.062   0.916   0.007  0.00  0.00    +0.152 C 
ATOM      4  N   UNL A   1      -1.588   2.097   0.026  0.00  0.00    -0.177 NA
ATOM      5  C   UNL A   1       0.367   0.624  -0.045  0.00  0.00    +0.029 A 
ATOM      6  C   UNL A   1       0.485  -0.766  -0.011  0.00  0.00    +0.043 A 
ATOM      7  N   UNL A   1      -0.764  -1.382   0.038  0.00  0.00    -0.280 N 
ATOM      8  C   UNL A   1       1.715  -1.380  -0.003  0.00  0.00    +0.025 A 
ATOM      9  C   UNL A   1       2.844  -0.551  -0.027  0.00  0.00    +0.017 A 
ATOM     10  C   UNL A   1       2.731   0.865  -0.063  0.00  0.00    +0.060 A 
ATOM     11  C   UNL A   1       1.464   1.467  -0.078  0.00  0.00    +0.027 A 
ATOM     12  H   UNL A   1      -0.935  -2.377   0.081  0.00  0.00    +0.155 HD
ENDROOT
BRANCH   4  13
ATOM     13  N   UNL A   1      -2.943   2.142   0.099  0.00  0.00    -0.237 N 
ATOM     14  H   UNL A   1      -3.498   1.297   0.266  0.00  0.00    +0.174 HD
BRANCH  13  15
ATOM     15  C   UNL A   1      -3.593   3.374   0.284  0.00  0.00    +0.048 A 
ATOM     16  C   UNL A   1      -2.915   4.595   0.164  0.00  0.00    +0.026 A 
ATOM     17  C   UNL A   1      -3.590   5.807   0.300  0.00  0.00    +0.030 A 
ATOM     18  C   UNL A   1      -4.964   5.804   0.552  0.00  0.00    +0.105 A 
ATOM     19  C   UNL A   1      -5.656   4.601   0.696  0.00  0.00    +0.030 A 
ATOM     20  C   UNL A   1      -4.970   3.392   0.551  0.00  0.00    +0.026 A 
BRANCH  18  21
ATOM     21  S   UNL A   1      -5.828   7.338   0.684  0.00  0.00    +0.056 S 
ATOM     22  O   UNL A   1      -7.062   7.130   1.407  0.00  0.00    -0.153 OA
ATOM     23  O   UNL A   1      -4.896   8.387   1.022  0.00  0.00    -0.153 OA
BRANCH  21  24
ATOM     24  N   UNL A   1      -6.266   7.600  -0.915  0.00  0.00    -0.203 NA
ATOM     25  H   UNL A   1      -7.281   7.598  -1.007  0.00  0.00    +0.144 HD
ATOM     26  H   UNL A   1      -5.809   8.439  -1.271  0.00  0.00    +0.144 HD
ENDBRANCH  21  24
ENDBRANCH  18  21
ENDBRANCH  13  15
ENDBRANCH   4  13
BRANCH  10  27
ATOM     27  C   UNL A   1       3.994   1.657  -0.004  0.00  0.00    +0.339 C 
ATOM     28  O   UNL A   1       5.100   1.139   0.015  0.00  0.00    -0.245 OA
BRANCH  27  29
ATOM     29  O   UNL A   1       3.725   2.980   0.133  0.00  0.00    -0.461 OA
BRANCH  29  30
ATOM     30  C   UNL A   1       4.802   3.787   0.644  0.00  0.00    +0.235 C 
BRANCH  30  31
ATOM     31  C   UNL A   1       5.427   4.692  -0.425  0.00  0.00    +0.021 C 
ATOM     32  C   UNL A   1       4.399   5.640  -1.044  0.00  0.00    +0.010 C 
ATOM     33  C   UNL A   1       6.569   5.498   0.201  0.00  0.00    +0.010 C 
ENDBRANCH  30  31
ENDBRANCH  29  30
ENDBRANCH  27  29
ENDBRANCH  10  27
TORSDOF 8
