REMARK  Name = *****
REMARK  8 active torsions:
REMARK  status: ('A' for Active; 'I' for Inactive)
REMARK    1  A    between atoms: N_4  and  N_5
REMARK    2  A    between atoms: N_5  and  C_6
REMARK    3  A    between atoms: C_9  and  S_10
REMARK    4  A    between atoms: S_10  and  N_13
REMARK    5  A    between atoms: C_21  and  C_23
REMARK    6  A    between atoms: N_25  and  C_26
REMARK    7  A    between atoms: C_26  and  C_27
REMARK    8  A    between atoms: C_27  and  C_28
REMARK                            x       y       z     vdW  Elec       q    Type
REMARK                         _______ _______ _______ _____ _____    ______ ____
ROOT
ATOM      1  O   UNL A   1      -3.013  -0.654   0.066  0.00  0.00    -0.268 OA
ATOM      2  C   UNL A   1      -1.813  -0.480   0.027  0.00  0.00    +0.269 C 
ATOM      3  C   UNL A   1      -1.110   0.882   0.010  0.00  0.00    +0.152 C 
ATOM      4  N   UNL A   1      -1.631   2.064   0.049  0.00  0.00    -0.177 NA
ATOM      5  C   UNL A   1       0.319   0.597  -0.027  0.00  0.00    +0.029 A 
ATOM      6  C   UNL A   1       0.445  -0.790  -0.003  0.00  0.00    +0.043 A 
ATOM      7  N   UNL A   1      -0.799  -1.415   0.015  0.00  0.00    -0.280 N 
ATOM      8  C   UNL A   1       1.682  -1.389   0.020  0.00  0.00    +0.025 A 
ATOM      9  C   UNL A   1       2.800  -0.542   0.016  0.00  0.00    +0.015 A 
ATOM     10  C   UNL A   1       2.675   0.875  -0.022  0.00  0.00    +0.037 A 
ATOM     11  C   UNL A   1       1.401   1.458  -0.043  0.00  0.00    +0.025 A 
ATOM     12  H   UNL A   1      -0.965  -2.410   0.038  0.00  0.00    +0.155 HD
ENDROOT
BRANCH  10  13
ATOM     13  C   UNL A   1       3.940   1.673  -0.038  0.00  0.00    +0.244 C 
ATOM     14  O   UNL A   1       5.021   1.092   0.020  0.00  0.00    -0.270 OA
ATOM     15  N   UNL A   1       3.847   3.046  -0.118  0.00  0.00    -0.311 N 
ATOM     16  H   UNL A   1       2.963   3.533  -0.025  0.00  0.00    +0.149 HD
BRANCH  15  17
ATOM     17  C   UNL A   1       5.045   3.868  -0.058  0.00  0.00    +0.111 C 
BRANCH  17  18
ATOM     18  C   UNL A   1       4.753   5.366  -0.125  0.00  0.00    +0.075 C 
BRANCH  18  19
ATOM     19  C   UNL A   1       3.943   5.845   1.029  0.00  0.00    +0.060 A 
ATOM     20  C   UNL A   1       4.361   6.330   2.251  0.00  0.00    +0.107 A 
ATOM     21  N   UNL A   1       3.213   6.632   2.932  0.00  0.00    -0.351 N 
ATOM     22  C   UNL A   1       2.160   6.322   2.117  0.00  0.00    +0.196 A 
ATOM     23  N   UNL A   1       2.567   5.827   0.969  0.00  0.00    -0.241 NA
ATOM     24  H   UNL A   1       3.147   7.017   3.863  0.00  0.00    +0.166 HD
ENDBRANCH  18  19
ENDBRANCH  17  18
ENDBRANCH  15  17
ENDBRANCH  10  13
BRANCH   4  25
ATOM     25  N   UNL A   1      -2.982   2.120   0.116  0.00  0.00    -0.237 N 
ATOM     26  H   UNL A   1      -3.549   1.278   0.253  0.00  0.00    +0.174 HD
BRANCH  25  27
ATOM     27  C   UNL A   1      -3.619   3.359   0.279  0.00  0.00    +0.048 A 
ATOM     28  C   UNL A   1      -2.926   4.573   0.153  0.00  0.00    +0.026 A 
ATOM     29  C   UNL A   1      -3.586   5.797   0.284  0.00  0.00    +0.030 A 
ATOM     30  C   UNL A   1      -4.958   5.805   0.535  0.00  0.00    +0.105 A 
ATOM     31  C   UNL A   1      -5.669   4.613   0.677  0.00  0.00    +0.030 A 
ATOM     32  C   UNL A   1      -4.996   3.396   0.538  0.00  0.00    +0.026 A 
BRANCH  30  33
ATOM     33  S   UNL A   1      -5.810   7.345   0.656  0.00  0.00    +0.056 S 
ATOM     34  O   UNL A   1      -7.051   7.153   1.375  0.00  0.00    -0.153 OA
ATOM     35  O   UNL A   1      -4.872   8.391   0.990  0.00  0.00    -0.153 OA
BRANCH  33  36
ATOM     36  N   UNL A   1      -6.234   7.589  -0.948  0.00  0.00    -0.203 NA
ATOM     37  H   UNL A   1      -7.247   7.582  -1.059  0.00  0.00    +0.144 HD
ATOM     38  H   UNL A   1      -5.761   8.409  -1.324  0.00  0.00    +0.144 HD
ENDBRANCH  33  36
ENDBRANCH  30  33
ENDBRANCH  25  27
ENDBRANCH   4  25
TORSDOF 8
