REMARK SMILES NS(=O)(=O)c1ccc(N/N=C2\C(=O)Nc3ccc(C(=O)NCCc4c[nH]cn4)cc32)cc1
REMARK SMILES IDX 13 1 12 2 11 3 10 4 30 5 15 6 14 7 16 8 17 9 18 10 29 11
REMARK SMILES IDX 9 13 8 15 7 16 31 17 6 18 32 19 5 20 2 21 3 22 4 23 1 24
REMARK SMILES IDX 19 27 20 28 21 29 22 31 23 32 24 33 25 34 28 35 26 36 27 37
REMARK H PARENT 14 12 9 14 1 25 1 26 21 30 26 38
REMARK Flexibility Score: inf
ROOT
ATOM      1  O   UNL     1       2.600  -3.622   1.435  1.00  0.00    -0.267 OA
ATOM      2  C   UNL     1       1.564  -3.058   1.151  1.00  0.00     0.276 C 
ATOM      3  C   UNL     1       1.447  -1.625   0.617  1.00  0.00     0.158 C 
ATOM      4  N   UNL     1       2.391  -0.767   0.393  1.00  0.00    -0.169 NA
ATOM      5  C   UNL     1       0.024  -1.397   0.397  1.00  0.00     0.032 A 
ATOM      6  C   UNL     1      -0.630  -2.569   0.772  1.00  0.00     0.051 A 
ATOM      7  N   UNL     1       0.271  -3.535   1.212  1.00  0.00    -0.320 N 
ATOM      8  C   UNL     1      -2.000  -2.685   0.685  1.00  0.00     0.027 A 
ATOM      9  C   UNL     1      -2.713  -1.573   0.210  1.00  0.00     0.016 A 
ATOM     10  C   UNL     1      -2.047  -0.376  -0.158  1.00  0.00     0.040 A 
ATOM     11  C   UNL     1      -0.650  -0.289  -0.074  1.00  0.00     0.026 A 
ATOM     12  H   UNL     1       0.041  -4.465   1.527  1.00  0.00     0.170 HD
ENDROOT
BRANCH   4  13
ATOM     13  N   UNL     1       3.653  -1.167   0.696  1.00  0.00    -0.278 N 
ATOM     14  H   UNL     1       3.842  -2.149   0.929  1.00  0.00     0.190 HD
BRANCH  13  15
ATOM     15  C   UNL     1       4.745  -0.461   0.158  1.00  0.00     0.056 A 
ATOM     16  C   UNL     1       6.046  -0.932   0.393  1.00  0.00     0.029 A 
ATOM     17  C   UNL     1       4.589   0.753  -0.528  1.00  0.00     0.029 A 
ATOM     18  C   UNL     1       7.163  -0.230  -0.071  1.00  0.00     0.024 A 
ATOM     19  C   UNL     1       5.696   1.461  -1.003  1.00  0.00     0.024 A 
ATOM     20  C   UNL     1       6.979   0.967  -0.762  1.00  0.00     0.082 A 
BRANCH  20  21
ATOM     21  S   UNL     1       8.379   1.881  -1.347  1.00  0.00     0.238 S 
ATOM     22  O   UNL     1       8.042   2.473  -2.619  1.00  0.00    -0.207 OA
ATOM     23  O   UNL     1       9.569   1.085  -1.149  1.00  0.00    -0.207 OA
BRANCH  21  24
ATOM     24  N   UNL     1       8.476   3.116  -0.204  1.00  0.00    -0.225 NA
ATOM     25  H   UNL     1       7.666   3.152   0.414  1.00  0.00     0.137 HD
ATOM     26  H   UNL     1       9.348   3.011   0.317  1.00  0.00     0.137 HD
ENDBRANCH  21  24
ENDBRANCH  20  21
ENDBRANCH  13  15
ENDBRANCH   4  13
BRANCH  10  27
ATOM     27  C   UNL     1      -2.783   0.817  -0.668  1.00  0.00     0.251 C 
ATOM     28  O   UNL     1      -2.211   1.619  -1.397  1.00  0.00    -0.269 OA
ATOM     29  N   UNL     1      -4.087   0.961  -0.264  1.00  0.00    -0.352 N 
ATOM     30  H   UNL     1      -4.561   0.237   0.270  1.00  0.00     0.163 HD
BRANCH  29  31
ATOM     31  C   UNL     1      -4.956   1.984  -0.815  1.00  0.00     0.122 C 
BRANCH  31  32
ATOM     32  C   UNL     1      -6.199   2.207   0.049  1.00  0.00     0.079 C 
BRANCH  32  33
ATOM     33  C   UNL     1      -7.058   0.990   0.157  1.00  0.00     0.060 A 
ATOM     34  C   UNL     1      -8.386   0.833  -0.177  1.00  0.00     0.107 A 
ATOM     35  N   UNL     1      -6.551  -0.193   0.659  1.00  0.00    -0.242 NA
ATOM     36  N   UNL     1      -8.686  -0.464   0.133  1.00  0.00    -0.351 N 
ATOM     37  C   UNL     1      -7.553  -1.041   0.633  1.00  0.00     0.196 A 
ATOM     38  H   UNL     1      -9.582  -0.918   0.019  1.00  0.00     0.167 HD
ENDBRANCH  32  33
ENDBRANCH  31  32
ENDBRANCH  29  31
ENDBRANCH  10  27
TORSDOF 8
