REMARK  Name = *****
REMARK  10 active torsions:
REMARK  status: ('A' for Active; 'I' for Inactive)
REMARK    1  A    between atoms: C_1  and  N_2
REMARK    2  A    between atoms: C_3  and  S_4
REMARK    3  A    between atoms: S_4  and  C_5
REMARK    4  A    between atoms: C_5  and  C_6
REMARK    5  A    between atoms: N_8  and  C_9
REMARK    6  A    between atoms: C_13  and  O_14
REMARK    7  A    between atoms: O_14  and  C_15
REMARK    8  A    between atoms: C_17  and  O_18
REMARK    9  A    between atoms: O_18  and  C_19
REMARK   10  A    between atoms: C_22  and  C_23
REMARK                            x       y       z     vdW  Elec       q    Type
REMARK                         _______ _______ _______ _____ _____    ______ ____
ROOT
ATOM      1  C   UNL A   1       2.666  -4.326  -0.216  0.00  0.00    +0.228 C 
ATOM      2  O   UNL A   1       3.486  -4.687  -1.062  0.00  0.00    -0.275 OA
ATOM      3  N   UNL A   1       2.092  -5.170   0.727  0.00  0.00    -0.282 N 
ATOM      4  H   UNL A   1       1.236  -4.848   1.161  0.00  0.00    +0.155 HD
ENDROOT
BRANCH   3   5
ATOM      5  C   UNL A   1       2.364  -6.556   0.778  0.00  0.00    +0.077 A 
ATOM      6  C   UNL A   1       3.702  -6.981   0.743  0.00  0.00    +0.050 A 
ATOM      7  C   UNL A   1       4.056  -8.335   0.863  0.00  0.00    +0.085 A 
ATOM      8 CL   UNL A   1       5.760  -8.637   0.901  0.00  0.00    -0.080 Cl
ATOM      9  C   UNL A   1       3.056  -9.303   0.981  0.00  0.00    +0.142 A 
ATOM     10  C   UNL A   1       1.719  -8.867   1.030  0.00  0.00    +0.094 A 
ATOM     11  C   UNL A   1       1.362  -7.512   0.952  0.00  0.00    +0.145 A 
BRANCH   9  12
ATOM     12  O   UNL A   1       3.138 -10.665   1.076  0.00  0.00    -0.493 OA
ATOM     13  C   UNL A   1       4.394 -11.319   1.030  0.00  0.00    +0.277 C 
ENDBRANCH   9  12
BRANCH  11  14
ATOM     14  O   UNL A   1       0.018  -7.286   1.090  0.00  0.00    -0.493 OA
ATOM     15  C   UNL A   1      -0.578  -6.342   0.208  0.00  0.00    +0.277 C 
ENDBRANCH  11  14
ENDBRANCH   3   5
BRANCH   1  16
ATOM     16  C   UNL A   1       2.218  -2.876  -0.133  0.00  0.00    +0.173 C 
BRANCH  16  17
ATOM     17  S   UNL A   1       0.415  -2.764  -0.303  0.00  0.00    -0.077 S 
BRANCH  17  20
ATOM     18  C   UNL A   1      -2.040  -0.925  -1.289  0.00  0.00    +0.153 C 
ATOM     19  N   UNL A   1      -0.984  -0.415  -0.454  0.00  0.00    -0.305 N 
ATOM     20  C   UNL A   1       0.144  -1.076  -0.049  0.00  0.00    +0.192 A 
ATOM     21  N   UNL A   1       0.946  -0.251   0.574  0.00  0.00    -0.122 NA
ATOM     22  N   UNL A   1       0.330   0.980   0.598  0.00  0.00    -0.128 NA
ATOM     23  C   UNL A   1      -0.852   0.883   0.009  0.00  0.00    +0.165 A 
BRANCH  23  24
ATOM     24  C   UNL A   1      -1.801   1.996  -0.166  0.00  0.00    +0.019 A 
ATOM     25  C   UNL A   1      -1.308   3.294  -0.358  0.00  0.00    +0.012 A 
ATOM     26  C   UNL A   1      -2.176   4.373  -0.561  0.00  0.00    +0.001 A 
ATOM     27  C   UNL A   1      -3.553   4.168  -0.576  0.00  0.00    +0.000 A 
ATOM     28  C   UNL A   1      -4.062   2.892  -0.353  0.00  0.00    +0.001 A 
ATOM     29  C   UNL A   1      -3.191   1.820  -0.130  0.00  0.00    +0.012 A 
ENDBRANCH  23  24
ENDBRANCH  17  20
ENDBRANCH  16  17
ENDBRANCH   1  16
TORSDOF 7
