REMARK SMILES COc1cc(OC)c(NC(=O)CSc2nnc(-c3ccccc3)n2C)cc1Cl
REMARK SMILES IDX 12 1 13 2 14 3 25 4 24 5 17 6 15 7 16 8 18 9 19 10 23 11
REMARK SMILES IDX 20 12 22 13 21 14 10 15 11 16 9 17 8 19 26 20 5 21 27 22
REMARK SMILES IDX 4 23 28 24 3 25 6 26 7 27 2 28 1 29
REMARK H PARENT 9 18
REMARK Flexibility Score: inf
ROOT
ATOM      1  C   UNL     1       0.093  -0.371  -1.931  1.00  0.00     0.178 C 
ENDROOT
BRANCH   1   2
ATOM      2  S   UNL     1      -0.864  -1.094  -0.565  1.00  0.00    -0.076 SA
BRANCH   2   3
ATOM      3  C   UNL     1      -2.391  -0.333  -0.834  1.00  0.00     0.191 A 
ATOM      4  C   UNL     1      -3.768  -1.897   0.575  1.00  0.00     0.154 C 
ATOM      5  N   UNL     1      -3.559  -0.732  -0.246  1.00  0.00    -0.305 N 
ATOM      6  C   UNL     1      -4.513   0.177  -0.658  1.00  0.00     0.164 A 
ATOM      7  N   UNL     1      -2.609   0.708  -1.599  1.00  0.00    -0.123 NA
ATOM      8  N   UNL     1      -3.943   1.017  -1.505  1.00  0.00    -0.129 NA
BRANCH   6   9
ATOM      9  C   UNL     1      -5.921   0.198  -0.267  1.00  0.00     0.019 A 
ATOM     10  C   UNL     1      -6.312   0.151   1.078  1.00  0.00     0.012 A 
ATOM     11  C   UNL     1      -6.908   0.301  -1.256  1.00  0.00     0.012 A 
ATOM     12  C   UNL     1      -7.665   0.175   1.424  1.00  0.00     0.001 A 
ATOM     13  C   UNL     1      -8.261   0.324  -0.910  1.00  0.00     0.001 A 
ATOM     14  C   UNL     1      -8.638   0.257   0.430  1.00  0.00     0.000 A 
ENDBRANCH   6   9
ENDBRANCH   2   3
ENDBRANCH   1   2
BRANCH   1  15
ATOM     15  C   UNL     1       1.524  -0.875  -1.853  1.00  0.00     0.234 C 
ATOM     16  O   UNL     1       1.879  -1.875  -2.472  1.00  0.00    -0.274 OA
ATOM     17  N   UNL     1       2.321  -0.101  -1.029  1.00  0.00    -0.322 N 
ATOM     18  H   UNL     1       1.886   0.677  -0.540  1.00  0.00     0.170 HD
BRANCH  17  19
ATOM     19  C   UNL     1       3.690  -0.267  -0.721  1.00  0.00     0.085 A 
ATOM     20  C   UNL     1       4.487  -1.277  -1.257  1.00  0.00     0.054 A 
ATOM     21  C   UNL     1       4.254   0.659   0.182  1.00  0.00     0.146 A 
ATOM     22  C   UNL     1       5.835  -1.368  -0.898  1.00  0.00     0.085 A 
ATOM     23  C   UNL     1       5.606   0.562   0.537  1.00  0.00     0.096 A 
ATOM     24  Cl  UNL     1       6.774  -2.644  -1.596  1.00  0.00    -0.080 Cl
ATOM     25  C   UNL     1       6.408  -0.452  -0.000  1.00  0.00     0.141 A 
BRANCH  21  26
ATOM     26  O   UNL     1       3.383   1.617   0.653  1.00  0.00    -0.494 OA
ATOM     27  C   UNL     1       3.901   2.585   1.558  1.00  0.00     0.278 C 
ENDBRANCH  21  26
BRANCH  25  28
ATOM     28  O   UNL     1       7.737  -0.625   0.289  1.00  0.00    -0.495 OA
ATOM     29  C   UNL     1       8.358   0.300   1.171  1.00  0.00     0.278 C 
ENDBRANCH  25  28
ENDBRANCH  17  19
ENDBRANCH   1  15
TORSDOF 7
