REMARK  Name = *****
REMARK  10 active torsions:
REMARK  status: ('A' for Active; 'I' for Inactive)
REMARK    1  A    between atoms: O_1  and  C_2
REMARK    2  A    between atoms: O_1  and  C_30
REMARK    3  A    between atoms: C_9  and  S_11
REMARK    4  A    between atoms: S_11  and  C_12
REMARK    5  A    between atoms: C_12  and  C_13
REMARK    6  A    between atoms: N_15  and  C_16
REMARK    7  A    between atoms: C_17  and  C_29
REMARK    8  A    between atoms: N_18  and  C_28
REMARK    9  A    between atoms: N_19  and  C_22
REMARK   10  A    between atoms: C_30  and  C_31
REMARK                            x       y       z     vdW  Elec       q    Type
REMARK                         _______ _______ _______ _____ _____    ______ ____
ROOT
ATOM      1  C   UNL A   1      -6.529   4.010   5.423  0.00  0.00    +0.228 C 
ATOM      2  O   UNL A   1      -6.547   5.193   5.076  0.00  0.00    -0.275 OA
ATOM      3  N   UNL A   1      -7.386   3.494   6.375  0.00  0.00    -0.279 N 
ATOM      4  H   UNL A   1      -7.011   2.783   6.997  0.00  0.00    +0.155 HD
ENDROOT
BRANCH   3   5
ATOM      5  C   UNL A   1      -8.496   4.161   6.831  0.00  0.00    +0.121 A 
ATOM      6  C   UNL A   1      -9.446   4.862   6.193  0.00  0.00    +0.059 A 
ATOM      7  N   UNL A   1     -10.452   5.310   7.062  0.00  0.00    -0.282 N 
ATOM      8  N   UNL A   1      -9.977   5.038   8.364  0.00  0.00    -0.216 N 
ATOM      9  C   UNL A   1      -8.830   4.254   8.285  0.00  0.00    +0.293 A 
ATOM     10  O   UNL A   1      -8.165   3.715   9.163  0.00  0.00    -0.264 OA
ATOM     11  C   UNL A   1     -11.181   6.558   6.845  0.00  0.00    +0.171 C 
ATOM     12  C   UNL A   1      -9.547   5.106   4.728  0.00  0.00    +0.067 C 
BRANCH   8  13
ATOM     13  C   UNL A   1     -10.688   5.366   9.528  0.00  0.00    +0.067 A 
ATOM     14  C   UNL A   1     -10.031   6.029  10.571  0.00  0.00    +0.028 A 
ATOM     15  C   UNL A   1     -10.739   6.416  11.711  0.00  0.00    +0.002 A 
ATOM     16  C   UNL A   1     -12.090   6.096  11.835  0.00  0.00    +0.000 A 
ATOM     17  C   UNL A   1     -12.742   5.417  10.807  0.00  0.00    +0.002 A 
ATOM     18  C   UNL A   1     -12.049   5.074   9.644  0.00  0.00    +0.028 A 
ENDBRANCH   8  13
ENDBRANCH   3   5
BRANCH   1  19
ATOM     19  C   UNL A   1      -5.438   3.078   4.925  0.00  0.00    +0.172 C 
BRANCH  19  20
ATOM     20  S   UNL A   1      -5.983   1.371   4.638  0.00  0.00    -0.089 S 
BRANCH  20  28
ATOM     21  C   UNL A   1     -10.803   2.152   0.374  0.00  0.00    +0.122 A 
ATOM     22  C   UNL A   1     -10.344   3.452   0.568  0.00  0.00    +0.048 A 
ATOM     23  C   UNL A   1      -9.237   3.702   1.390  0.00  0.00    +0.032 A 
ATOM     24  C   UNL A   1      -8.588   2.637   2.046  0.00  0.00    +0.080 A 
ATOM     25  C   UNL A   1      -9.070   1.343   1.855  0.00  0.00    +0.043 A 
ATOM     26  C   UNL A   1     -10.164   1.079   1.012  0.00  0.00    +0.062 A 
ATOM     27  S   UNL A   1      -8.126   0.258   2.804  0.00  0.00    -0.061 S 
ATOM     28  C   UNL A   1      -7.212   1.576   3.404  0.00  0.00    +0.136 A 
ATOM     29  N   UNL A   1      -7.506   2.751   2.905  0.00  0.00    -0.233 NA
BRANCH  21  30
ATOM     30  O   UNL A   1     -11.869   1.795  -0.411  0.00  0.00    -0.492 OA
BRANCH  30  31
ATOM     31  C   UNL A   1     -12.588   2.855  -1.044  0.00  0.00    +0.226 C 
ATOM     32  C   UNL A   1     -13.733   2.256  -1.840  0.00  0.00    +0.048 C 
ENDBRANCH  30  31
ENDBRANCH  21  30
ENDBRANCH  20  28
ENDBRANCH  19  20
ENDBRANCH   1  19
TORSDOF 7
