REMARK SMILES CCOc1ccc2nc(SCC(=O)Nc3c(C)n(C)n(-c4ccccc4)c3=O)sc2c1
REMARK SMILES IDX 11 1 10 2 9 3 4 4 5 5 31 6 6 7 30 8 7 9 29 10 8 11 3 12 2 13
REMARK SMILES IDX 1 14 12 15 13 16 14 17 15 19 16 20 27 21 18 22 17 23 20 24
REMARK SMILES IDX 28 25 19 26 21 27 22 28 26 29 23 30 25 31 24 32
REMARK H PARENT 14 18
REMARK Flexibility Score: inf
ROOT
ATOM      1  C   UNL     1       0.563   1.492  -0.552  1.00  0.00     0.177 C 
ENDROOT
BRANCH   1   2
ATOM      2  S   UNL     1       1.209   0.523  -1.942  1.00  0.00    -0.086 SA
BRANCH   2   3
ATOM      3  C   UNL     1       2.877   0.353  -1.444  1.00  0.00     0.151 A 
ATOM      4  C   UNL     1       7.381  -0.173  -0.110  1.00  0.00     0.120 A 
ATOM      5  C   UNL     1       6.739   0.148   1.084  1.00  0.00     0.049 A 
ATOM      6  C   UNL     1       6.649  -0.258  -1.301  1.00  0.00     0.067 A 
ATOM      7  C   UNL     1       5.359   0.391   1.109  1.00  0.00     0.034 A 
ATOM      8  C   UNL     1       5.265  -0.019  -1.265  1.00  0.00     0.059 A 
ATOM      9  C   UNL     1       4.606   0.308  -0.079  1.00  0.00     0.083 A 
ATOM     10  S   UNL     1       4.117  -0.063  -2.547  1.00  0.00    -0.108 S 
ATOM     11  N   UNL     1       3.243   0.523  -0.195  1.00  0.00    -0.230 NA
BRANCH   4  12
ATOM     12  O   UNL     1       8.719  -0.425  -0.260  1.00  0.00    -0.494 OA
BRANCH  12  13
ATOM     13  C   UNL     1       9.522  -0.410   0.921  1.00  0.00     0.226 C 
ATOM     14  C   UNL     1      10.953  -0.717   0.516  1.00  0.00     0.049 C 
ENDBRANCH  12  13
ENDBRANCH   4  12
ENDBRANCH   2   3
ENDBRANCH   1   2
BRANCH   1  15
ATOM     15  C   UNL     1      -0.919   1.742  -0.772  1.00  0.00     0.235 C 
ATOM     16  O   UNL     1      -1.313   2.733  -1.379  1.00  0.00    -0.274 OA
ATOM     17  N   UNL     1      -1.725   0.772  -0.212  1.00  0.00    -0.319 N 
ATOM     18  H   UNL     1      -1.290   0.109   0.428  1.00  0.00     0.170 HD
BRANCH  17  19
ATOM     19  C   UNL     1      -3.089   0.659  -0.258  1.00  0.00     0.130 C 
ATOM     20  C   UNL     1      -4.066   1.181  -1.017  1.00  0.00     0.061 C 
ATOM     21  C   UNL     1      -3.772  -0.267   0.702  1.00  0.00     0.295 C 
ATOM     22  N   UNL     1      -5.350   0.754  -0.617  1.00  0.00    -0.283 N 
ATOM     23  C   UNL     1      -3.943   2.064  -2.217  1.00  0.00     0.069 C 
ATOM     24  N   UNL     1      -5.139  -0.191   0.430  1.00  0.00    -0.216 N 
ATOM     25  O   UNL     1      -3.140  -0.951   1.496  1.00  0.00    -0.265 OA
ATOM     26  C   UNL     1      -6.324   1.808  -0.267  1.00  0.00     0.172 C 
BRANCH  24  27
ATOM     27  C   UNL     1      -6.098  -1.193   0.733  1.00  0.00     0.067 A 
ATOM     28  C   UNL     1      -5.914  -2.059   1.820  1.00  0.00     0.028 A 
ATOM     29  C   UNL     1      -7.254  -1.355  -0.048  1.00  0.00     0.028 A 
ATOM     30  C   UNL     1      -6.857  -3.046   2.123  1.00  0.00     0.002 A 
ATOM     31  C   UNL     1      -8.199  -2.340   0.256  1.00  0.00     0.002 A 
ATOM     32  C   UNL     1      -8.000  -3.186   1.342  1.00  0.00     0.000 A 
ENDBRANCH  24  27
ENDBRANCH  17  19
ENDBRANCH   1  15
TORSDOF 7
