REMARK SMILES O=C(Nc1cc(C2CCCCC2)[nH]n1)c1ccc(Br)cc1
REMARK SMILES IDX 4 1 14 2 13 3 6 4 5 5 3 7 2 8 1 9 15 11 19 12 18 13 17 14
REMARK SMILES IDX 20 15 16 16 21 17 7 18 8 19 12 20 9 21 11 22 10 23
REMARK H PARENT 13 6 3 10
REMARK Flexibility Score: inf
ROOT
ATOM      1  C   UNL     1       0.668  -0.119  -0.886  1.00  0.00     0.154 A 
ATOM      2  N   UNL     1       0.161  -0.306  -2.102  1.00  0.00    -0.157 NA
ATOM      3  N   UNL     1      -1.164  -0.321  -1.925  1.00  0.00    -0.280 N 
ATOM      4  C   UNL     1      -1.546  -0.159  -0.621  1.00  0.00     0.040 A 
ATOM      5  C   UNL     1      -0.365  -0.027   0.079  1.00  0.00     0.072 A 
ATOM      6  H   UNL     1      -1.751  -0.449  -2.743  1.00  0.00     0.190 HD
ENDROOT
BRANCH   1   7
ATOM      7  N   UNL     1       2.009  -0.037  -0.575  1.00  0.00    -0.305 N 
ATOM      8  C   UNL     1       3.041  -0.051  -1.491  1.00  0.00     0.256 C 
ATOM      9  O   UNL     1       2.968  -0.064  -2.714  1.00  0.00    -0.269 OA
ATOM     10  H   UNL     1       2.219   0.109   0.399  1.00  0.00     0.171 HD
BRANCH   8  11
ATOM     11  C   UNL     1       4.401   0.002  -0.883  1.00  0.00     0.040 A 
ATOM     12  Br  UNL     1       8.717   0.239   0.916  1.00  0.00    -0.051 Br
ATOM     13  C   UNL     1       6.976   0.142   0.187  1.00  0.00     0.018 A 
ATOM     14  C   UNL     1       5.995  -0.607   0.839  1.00  0.00     0.016 A 
ATOM     15  C   UNL     1       6.685   0.810  -1.001  1.00  0.00     0.016 A 
ATOM     16  C   UNL     1       4.706  -0.682   0.303  1.00  0.00     0.015 A 
ATOM     17  C   UNL     1       5.399   0.735  -1.539  1.00  0.00     0.015 A 
ENDBRANCH   8  11
ENDBRANCH   1   7
BRANCH   4  18
ATOM     18  C   UNL     1      -2.983  -0.152  -0.202  1.00  0.00     0.038 C 
ATOM     19  C   UNL     1      -3.326   1.093   0.624  1.00  0.00     0.010 C 
ATOM     20  C   UNL     1      -3.345  -1.442   0.559  1.00  0.00     0.010 C 
ATOM     21  C   UNL     1      -4.822   1.169   0.943  1.00  0.00     0.001 C 
ATOM     22  C   UNL     1      -4.520  -1.272   1.526  1.00  0.00     0.001 C 
ATOM     23  C   UNL     1      -5.494  -0.200   1.058  1.00  0.00     0.000 C 
ENDBRANCH   4  18
TORSDOF 3
