REMARK  Name = *****
REMARK  2 active torsions:
REMARK  status: ('A' for Active; 'I' for Inactive)
REMARK    1  A    between atoms: C_5  and  C_8
REMARK    2  A    between atoms: C_14  and  C_16
REMARK                            x       y       z     vdW  Elec       q    Type
REMARK                         _______ _______ _______ _____ _____    ______ ____
ROOT
ATOM      1  C   UNL A   1       4.665  -2.148  -0.803  0.00  0.00    +0.249 C 
ATOM      2  O   UNL A   1       5.149  -3.079  -1.443  0.00  0.00    -0.270 OA
ATOM      3  N   UNL A   1       5.335  -1.255   0.018  0.00  0.00    -0.265 N 
ATOM      4  C   UNL A   1       6.711  -1.270   0.163  0.00  0.00    +0.147 A 
ATOM      5  N   UNL A   1       7.510  -2.148  -0.440  0.00  0.00    -0.158 NA
ATOM      6  N   UNL A   1       8.739  -1.819  -0.065  0.00  0.00    -0.280 N 
ATOM      7  C   UNL A   1       8.783  -0.753   0.793  0.00  0.00    +0.041 A 
ATOM      8  C   UNL A   1       7.467  -0.365   0.947  0.00  0.00    +0.068 A 
ATOM      9  H   UNL A   1       4.846  -0.514   0.486  0.00  0.00    +0.157 HD
ATOM     10  H   UNL A   1       9.505  -2.366  -0.438  0.00  0.00    +0.189 HD
ENDROOT
BRANCH   1  15
ATOM     11 BR   UNL A   1      -1.396  -1.481  -1.718  0.00  0.00    -0.050 Br
ATOM     12  C   UNL A   1       0.457  -1.685  -1.409  0.00  0.00    +0.018 A 
ATOM     13  C   UNL A   1       1.009  -1.269  -0.195  0.00  0.00    +0.016 A 
ATOM     14  C   UNL A   1       2.384  -1.400   0.032  0.00  0.00    +0.014 A 
ATOM     15  C   UNL A   1       3.201  -1.948  -0.961  0.00  0.00    +0.037 A 
ATOM     16  C   UNL A   1       2.627  -2.380  -2.170  0.00  0.00    +0.014 A 
ATOM     17  C   UNL A   1       1.259  -2.245  -2.398  0.00  0.00    +0.016 A 
ENDBRANCH   1  15
BRANCH   7  18
ATOM     18  C   UNL A   1      10.067  -0.233   1.358  0.00  0.00    +0.037 C 
ATOM     19  C   UNL A   1      10.999   0.246   0.232  0.00  0.00    +0.010 C 
ATOM     20  C   UNL A   1      12.372   0.660   0.750  0.00  0.00    +0.001 C 
ATOM     21  C   UNL A   1      13.014  -0.450   1.574  0.00  0.00    +0.000 C 
ATOM     22  C   UNL A   1      12.116  -0.865   2.733  0.00  0.00    +0.001 C 
ATOM     23  C   UNL A   1      10.739  -1.298   2.243  0.00  0.00    +0.010 C 
ENDBRANCH   7  18
TORSDOF 2
