REMARK  Name = *****
REMARK  7 active torsions:
REMARK  status: ('A' for Active; 'I' for Inactive)
REMARK    1  A    between atoms: N_1  and  C_2
REMARK    2  A    between atoms: C_6  and  S_7
REMARK    3  A    between atoms: S_7  and  C_8
REMARK    4  A    between atoms: C_8  and  C_9
REMARK    5  A    between atoms: N_11  and  C_12
REMARK    6  A    between atoms: C_15  and  O_18
REMARK    7  A    between atoms: O_18  and  C_19
REMARK                            x       y       z     vdW  Elec       q    Type
REMARK                         _______ _______ _______ _____ _____    ______ ____
ROOT
ATOM      1  C   UNL A   1      -2.457  -4.519   0.018  0.00  0.00    +0.228 C 
ATOM      2  O   UNL A   1      -1.512  -5.253   0.299  0.00  0.00    -0.275 OA
ATOM      3  N   UNL A   1      -3.782  -4.910  -0.125  0.00  0.00    -0.285 N 
ATOM      4  H   UNL A   1      -4.406  -4.255  -0.590  0.00  0.00    +0.155 HD
ENDROOT
BRANCH   3   5
ATOM      5  C   UNL A   1      -4.279  -6.217   0.048  0.00  0.00    +0.034 A 
ATOM      6  C   UNL A   1      -3.577  -7.214   0.725  0.00  0.00    +0.027 A 
ATOM      7  C   UNL A   1      -4.085  -8.514   0.818  0.00  0.00    +0.047 A 
ATOM      8  C   UNL A   1      -5.310  -8.831   0.238  0.00  0.00    +0.120 A 
ATOM      9  C   UNL A   1      -6.044  -7.827  -0.391  0.00  0.00    +0.047 A 
ATOM     10  C   UNL A   1      -5.540  -6.520  -0.478  0.00  0.00    +0.027 A 
BRANCH   8  11
ATOM     11  O   UNL A   1      -5.882 -10.075   0.227  0.00  0.00    -0.495 OA
ATOM     12  C   UNL A   1      -5.115 -11.130   0.795  0.00  0.00    +0.277 C 
ENDBRANCH   8  11
ENDBRANCH   3   5
BRANCH   1  13
ATOM     13  C   UNL A   1      -2.222  -3.045  -0.262  0.00  0.00    +0.173 C 
BRANCH  13  14
ATOM     14  S   UNL A   1      -1.733  -2.802  -1.997  0.00  0.00    -0.075 S 
BRANCH  14  20
ATOM     15  N   UNL A   1      -3.322  -3.530  -4.101  0.00  0.00    -0.223 N 
ATOM     16  C   UNL A   1      -2.292  -3.783  -5.069  0.00  0.00    +0.177 C 
ATOM     17  N   UNL A   1      -4.618  -3.722  -4.406  0.00  0.00    -0.043 NA
ATOM     18  N   UNL A   1      -5.285  -3.436  -3.295  0.00  0.00    -0.022 NA
ATOM     19  N   UNL A   1      -4.428  -3.067  -2.285  0.00  0.00    -0.102 NA
ATOM     20  C   UNL A   1      -3.221  -3.128  -2.802  0.00  0.00    +0.209 A 
ENDBRANCH  14  20
ENDBRANCH  13  14
ENDBRANCH   1  13
TORSDOF 5
