REMARK SMILES COc1ccc(NC(=O)CSc2nnnn2C)cc1
REMARK SMILES IDX 8 1 9 2 7 3 10 5 11 6 12 7 16 8 17 9 15 10 14 11 13 12 6 13
REMARK SMILES IDX 5 14 18 15 4 16 19 17 3 18 2 19 1 20
REMARK H PARENT 7 4
REMARK Flexibility Score: inf
ROOT
ATOM      1  C   UNL     1      -0.466   2.176  -0.781  1.00  0.00     0.234 C 
ATOM      2  O   UNL     1       0.113   2.981  -0.056  1.00  0.00    -0.274 OA
ATOM      3  N   UNL     1      -0.087   0.866  -1.018  1.00  0.00    -0.325 N 
ATOM      4  H   UNL     1      -0.744   0.290  -1.541  1.00  0.00     0.169 HD
ENDROOT
BRANCH   1   5
ATOM      5  C   UNL     1      -1.736   2.575  -1.520  1.00  0.00     0.178 C 
BRANCH   5   6
ATOM      6  S   UNL     1      -3.205   2.183  -0.524  1.00  0.00    -0.075 SA
BRANCH   6   7
ATOM      7  C   UNL     1      -3.331   0.481  -0.770  1.00  0.00     0.209 A 
ATOM      8  N   UNL     1      -4.144  -0.342  -0.048  1.00  0.00    -0.224 N 
ATOM      9  C   UNL     1      -5.044  -0.034   1.028  1.00  0.00     0.179 C 
ATOM     10  N   UNL     1      -3.988  -1.607  -0.477  1.00  0.00    -0.045 NA
ATOM     11  N   UNL     1      -3.091  -1.537  -1.452  1.00  0.00    -0.023 NA
ATOM     12  N   UNL     1      -2.671  -0.243  -1.646  1.00  0.00    -0.102 NA
ENDBRANCH   6   7
ENDBRANCH   5   6
ENDBRANCH   1   5
BRANCH   3  13
ATOM     13  C   UNL     1       1.039   0.188  -0.510  1.00  0.00     0.041 A 
ATOM     14  C   UNL     1       2.049   0.797   0.235  1.00  0.00     0.030 A 
ATOM     15  C   UNL     1       1.137  -1.179  -0.786  1.00  0.00     0.030 A 
ATOM     16  C   UNL     1       3.142   0.051   0.702  1.00  0.00     0.048 A 
ATOM     17  C   UNL     1       2.226  -1.921  -0.320  1.00  0.00     0.048 A 
ATOM     18  C   UNL     1       3.235  -1.312   0.427  1.00  0.00     0.119 A 
BRANCH  18  19
ATOM     19  O   UNL     1       4.242  -2.148   0.822  1.00  0.00    -0.497 OA
ATOM     20  C   UNL     1       5.291  -1.570   1.588  1.00  0.00     0.278 C 
ENDBRANCH  18  19
ENDBRANCH   3  13
TORSDOF 5
