REMARK SMILES CCOc1ccc(C(C)=O)cc1Cc1c(O)nc(N)nc1O
REMARK SMILES IDX 7 1 6 2 5 3 4 4 12 5 11 6 8 7 10 8 9 9 13 10 14 11 15 12
REMARK SMILES IDX 21 13 17 14 20 15 18 16 16 17 22 19 19 21 3 24 2 25 1 26
REMARK H PARENT 16 18 22 20 19 22 19 23
REMARK Flexibility Score: inf
ROOT
ATOM      1  C   UNL     1      -1.704   1.774   0.881  1.00  0.00     0.018 A 
ATOM      2  C   UNL     1      -2.590   0.737   1.178  1.00  0.00     0.015 A 
ATOM      3  C   UNL     1      -2.516  -0.476   0.482  1.00  0.00     0.047 A 
ATOM      4  C   UNL     1      -1.557  -0.674  -0.516  1.00  0.00     0.122 A 
ATOM      5  C   UNL     1      -0.650   0.360  -0.817  1.00  0.00    -0.000 A 
ATOM      6  C   UNL     1      -0.742   1.580  -0.116  1.00  0.00     0.019 A 
ENDROOT
BRANCH   1   7
ATOM      7  C   UNL     1      -1.743   3.087   1.594  1.00  0.00     0.159 C 
ATOM      8  O   UNL     1      -0.909   3.952   1.338  1.00  0.00    -0.295 OA
ATOM      9  C   UNL     1      -2.815   3.324   2.626  1.00  0.00     0.093 C 
ENDBRANCH   1   7
BRANCH   5  10
ATOM     10  C   UNL     1       0.430   0.201  -1.874  1.00  0.00     0.086 C 
BRANCH  10  11
ATOM     11  C   UNL     1       1.818   0.110  -1.321  1.00  0.00     0.081 A 
ATOM     12  C   UNL     1       2.677   1.175  -1.238  1.00  0.00     0.223 A 
ATOM     13  C   UNL     1       2.371  -1.039  -0.820  1.00  0.00     0.223 A 
ATOM     14  N   UNL     1       3.917   1.148  -0.733  1.00  0.00    -0.177 NA
ATOM     15  N   UNL     1       3.601  -1.155  -0.298  1.00  0.00    -0.177 NA
ATOM     16  C   UNL     1       4.331  -0.039  -0.289  1.00  0.00     0.226 A 
BRANCH  12  17
ATOM     17  O   UNL     1       2.316   2.406  -1.688  1.00  0.00    -0.493 OA
ATOM     18  H   UNL     1       3.117   2.918  -1.478  1.00  0.00     0.295 HD
ENDBRANCH  12  17
BRANCH  13  19
ATOM     19  O   UNL     1       1.692  -2.214  -0.827  1.00  0.00    -0.493 OA
ATOM     20  H   UNL     1       2.355  -2.806  -0.429  1.00  0.00     0.295 HD
ENDBRANCH  13  19
BRANCH  16  21
ATOM     21  N   UNL     1       5.595  -0.109   0.256  1.00  0.00    -0.368 N 
ATOM     22  H   UNL     1       5.652  -0.878   0.909  1.00  0.00     0.159 HD
ATOM     23  H   UNL     1       5.883   0.801   0.587  1.00  0.00     0.159 HD
ENDBRANCH  16  21
ENDBRANCH  10  11
ENDBRANCH   5  10
BRANCH   4  24
ATOM     24  O   UNL     1      -1.426  -1.817  -1.255  1.00  0.00    -0.494 OA
BRANCH  24  25
ATOM     25  C   UNL     1      -2.232  -2.955  -0.966  1.00  0.00     0.226 C 
ATOM     26  C   UNL     1      -1.644  -3.769   0.175  1.00  0.00     0.049 C 
ENDBRANCH  24  25
ENDBRANCH   4  24
TORSDOF 8
