REMARK  Name = *****
REMARK  9 active torsions:
REMARK  status: ('A' for Active; 'I' for Inactive)
REMARK    1  A    between atoms: C_2  and  C_3
REMARK    2  A    between atoms: C_2  and  C_4
REMARK    3  A    between atoms: C_7  and  O_20
REMARK    4  A    between atoms: C_8  and  C_9
REMARK    5  A    between atoms: C_9  and  C_10
REMARK    6  A    between atoms: C_11  and  O_12
REMARK    7  A    between atoms: C_17  and  O_18
REMARK    8  A    between atoms: O_20  and  C_21
REMARK    9  A    between atoms: C_21  and  C_22
REMARK                            x       y       z     vdW  Elec       q    Type
REMARK                         _______ _______ _______ _____ _____    ______ ____
ROOT
ATOM      1  C   UNL A   1       6.296  -3.022   0.315  0.00  0.00    +0.084 C 
ENDROOT
BRANCH   1   2
ATOM      2  C   UNL A   1       7.461  -2.279  -0.282  0.00  0.00    +0.080 A 
ATOM      3  C   UNL A   1       7.921  -1.044   0.122  0.00  0.00    +0.224 A 
ATOM      4  N   UNL A   1       8.939  -0.385  -0.456  0.00  0.00    -0.179 NA
ATOM      5  C   UNL A   1       9.536  -0.978  -1.485  0.00  0.00    +0.219 A 
ATOM      6  N   UNL A   1      10.525  -0.274  -2.141  0.00  0.00    -0.327 N 
ATOM      7  N   UNL A   1       9.201  -2.170  -1.968  0.00  0.00    -0.179 NA
ATOM      8  C   UNL A   1       8.190  -2.779  -1.338  0.00  0.00    +0.224 A 
ATOM      9  H   UNL A   1      10.389   0.714  -1.967  0.00  0.00    +0.145 HD
ATOM     10  H   UNL A   1      10.569  -0.566  -3.106  0.00  0.00    +0.145 HD
BRANCH   3  11
ATOM     11  O   UNL A   1       7.404  -0.356   1.177  0.00  0.00    -0.492 OA
ATOM     12  H   UNL A   1       6.535  -0.707   1.403  0.00  0.00    +0.294 HD
ENDBRANCH   3  11
BRANCH   8  13
ATOM     13  O   UNL A   1       7.952  -4.015  -1.842  0.00  0.00    -0.492 OA
ATOM     14  H   UNL A   1       8.639  -4.057  -2.531  0.00  0.00    +0.294 HD
ENDBRANCH   8  13
ENDBRANCH   1   2
BRANCH   1  19
ATOM     15  C   UNL A   1       3.035  -1.183  -0.496  0.00  0.00    +0.018 A 
ATOM     16  C   UNL A   1       2.589  -1.878  -1.618  0.00  0.00    +0.015 A 
ATOM     17  C   UNL A   1       3.290  -2.996  -2.072  0.00  0.00    +0.046 A 
ATOM     18  C   UNL A   1       4.464  -3.416  -1.434  0.00  0.00    +0.124 A 
ATOM     19  C   UNL A   1       4.959  -2.690  -0.333  0.00  0.00    -0.000 A 
ATOM     20  C   UNL A   1       4.212  -1.595   0.141  0.00  0.00    +0.018 A 
BRANCH  15  22
ATOM     21  O   UNL A   1       2.725   0.577   1.042  0.00  0.00    -0.292 OA
ATOM     22  C   UNL A   1       2.290  -0.012   0.052  0.00  0.00    +0.160 C 
ATOM     23  C   UNL A   1       1.014   0.410  -0.626  0.00  0.00    +0.091 C 
ENDBRANCH  15  22
BRANCH  18  24
ATOM     24  O   UNL A   1       5.131  -4.562  -1.774  0.00  0.00    -0.492 OA
BRANCH  24  25
ATOM     25  C   UNL A   1       4.988  -5.028  -3.116  0.00  0.00    +0.226 C 
ATOM     26  C   UNL A   1       5.772  -6.320  -3.261  0.00  0.00    +0.048 C 
ENDBRANCH  24  25
ENDBRANCH  18  24
ENDBRANCH   1  19
TORSDOF 7
