REMARK  Name = *****
REMARK  6 active torsions:
REMARK  status: ('A' for Active; 'I' for Inactive)
REMARK    1  A    between atoms: N_2  and  C_4
REMARK    2  A    between atoms: C_7  and  C_10
REMARK    3  A    between atoms: N_11  and  C_12
REMARK    4  A    between atoms: C_18  and  S_21
REMARK    5  A    between atoms: S_21  and  C_22
REMARK    6  A    between atoms: C_22  and  C_23
REMARK                            x       y       z     vdW  Elec       q    Type
REMARK                         _______ _______ _______ _____ _____    ______ ____
ROOT
ATOM      1  C   UNL A   1       5.308   5.065  -0.180  0.00  0.00    +0.169 A 
ATOM      2  N   UNL A   1       5.881   5.597   0.988  0.00  0.00    -0.270 N 
ATOM      3  C   UNL A   1       6.487   6.775   0.564  0.00  0.00    +0.197 A 
ATOM      4  N   UNL A   1       6.373   6.904  -0.737  0.00  0.00    -0.122 NA
ATOM      5  N   UNL A   1       5.651   5.833  -1.203  0.00  0.00    -0.128 NA
ENDROOT
BRANCH   1   9
ATOM      6  C   UNL A   1       3.075   1.409  -0.335  0.00  0.00    +0.075 A 
ATOM      7  C   UNL A   1       2.838   2.317   0.700  0.00  0.00    +0.029 A 
ATOM      8  C   UNL A   1       3.493   3.553   0.696  0.00  0.00    +0.013 A 
ATOM      9  C   UNL A   1       4.455   3.866  -0.283  0.00  0.00    +0.020 A 
ATOM     10  C   UNL A   1       4.631   2.967  -1.347  0.00  0.00    +0.013 A 
ATOM     11  C   UNL A   1       3.946   1.742  -1.378  0.00  0.00    +0.029 A 
BRANCH   6  13
ATOM     12  O   UNL A   1       1.726  -0.185   0.678  0.00  0.00    -0.173 OA
ATOM     13  N   UNL A   1       2.422   0.090  -0.306  0.00  0.00    -0.187 N 
ATOM     14  O   UNL A   1       2.619  -0.670  -1.264  0.00  0.00    -0.777 OA
ENDBRANCH   6  13
ENDBRANCH   1   9
BRANCH   2  15
ATOM     15  C   UNL A   1       5.880   5.017   2.297  0.00  0.00    +0.051 A 
ATOM     16  C   UNL A   1       5.957   3.624   2.458  0.00  0.00    +0.026 A 
ATOM     17  C   UNL A   1       5.863   3.050   3.727  0.00  0.00    +0.002 A 
ATOM     18  C   UNL A   1       5.765   3.862   4.852  0.00  0.00    +0.000 A 
ATOM     19  C   UNL A   1       5.734   5.246   4.708  0.00  0.00    +0.002 A 
ATOM     20  C   UNL A   1       5.764   5.823   3.437  0.00  0.00    +0.026 A 
ENDBRANCH   2  15
BRANCH   3  21
ATOM     21  S   UNL A   1       7.511   7.756   1.570  0.00  0.00    -0.076 S 
BRANCH  21  22
ATOM     22  C   UNL A   1       7.550   9.366   0.765  0.00  0.00    +0.173 C 
BRANCH  22  23
ATOM     23  C   UNL A   1       6.223  10.120   0.723  0.00  0.00    +0.226 C 
ATOM     24  O   UNL A   1       5.152   9.606   1.033  0.00  0.00    -0.275 OA
ATOM     25  N   UNL A   1       6.306  11.463   0.331  0.00  0.00    -0.296 N 
ATOM     26  C   UNL A   1       7.521  12.144  -0.141  0.00  0.00    +0.136 C 
ATOM     27  C   UNL A   1       7.552  13.609   0.316  0.00  0.00    +0.178 C 
ATOM     28  O   UNL A   1       6.350  14.299  -0.050  0.00  0.00    -0.377 OA
ATOM     29  C   UNL A   1       5.205  13.665   0.545  0.00  0.00    +0.178 C 
ATOM     30  C   UNL A   1       5.074  12.214   0.069  0.00  0.00    +0.136 C 
ENDBRANCH  22  23
ENDBRANCH  21  22
ENDBRANCH   3  21
TORSDOF 6
