REMARK  Name = *****
REMARK  11 active torsions:
REMARK  status: ('A' for Active; 'I' for Inactive)
REMARK    1  A    between atoms: N_1  and  C_2
REMARK    2  A    between atoms: C_3  and  C_22
REMARK    3  A    between atoms: C_6  and  S_7
REMARK    4  A    between atoms: S_7  and  C_8
REMARK    5  A    between atoms: C_8  and  C_9
REMARK    6  A    between atoms: N_11  and  C_12
REMARK    7  A    between atoms: C_15  and  C_18
REMARK    8  A    between atoms: C_18  and  O_20
REMARK    9  A    between atoms: O_20  and  C_21
REMARK   10  A    between atoms: C_25  and  N_28
REMARK   11  A    between atoms: C_29  and  C_31
REMARK                            x       y       z     vdW  Elec       q    Type
REMARK                         _______ _______ _______ _____ _____    ______ ____
ROOT
ATOM      1  N   UNL A   1       0.851   0.034  -0.067  0.00  0.00    -0.305 N 
ATOM      2  C   UNL A   1       2.292   0.070  -0.111  0.00  0.00    +0.153 C 
ATOM      3  C   UNL A   1       0.015  -1.069  -0.009  0.00  0.00    +0.165 A 
ATOM      4  N   UNL A   1      -1.234  -0.630  -0.010  0.00  0.00    -0.128 NA
ATOM      5  N   UNL A   1      -1.223   0.747   0.010  0.00  0.00    -0.122 NA
ATOM      6  C   UNL A   1       0.029   1.128  -0.042  0.00  0.00    +0.192 A 
ENDROOT
BRANCH   3   7
ATOM      7  C   UNL A   1       0.425  -2.476   0.065  0.00  0.00    +0.019 A 
ATOM      8  C   UNL A   1       1.507  -2.861   0.860  0.00  0.00    +0.013 A 
ATOM      9  C   UNL A   1       1.962  -4.180   0.881  0.00  0.00    +0.024 A 
ATOM     10  C   UNL A   1       1.317  -5.172   0.149  0.00  0.00    +0.033 A 
ATOM     11  C   UNL A   1       0.178  -4.817  -0.588  0.00  0.00    +0.024 A 
ATOM     12  C   UNL A   1      -0.263  -3.479  -0.633  0.00  0.00    +0.013 A 
BRANCH  10  13
ATOM     13  N   UNL A   1       1.757  -6.516   0.119  0.00  0.00    -0.286 N 
ATOM     14  C   UNL A   1       2.893  -7.025   0.732  0.00  0.00    +0.214 C 
ATOM     15  O   UNL A   1       3.713  -6.400   1.399  0.00  0.00    -0.276 OA
ATOM     16  C   UNL A   1       3.094  -8.502   0.511  0.00  0.00    +0.109 C 
ATOM     17  H   UNL A   1       1.197  -7.156  -0.429  0.00  0.00    +0.155 HD
ENDBRANCH  10  13
ENDBRANCH   3   7
BRANCH   6  18
ATOM     18  S   UNL A   1       0.602   2.758  -0.030  0.00  0.00    -0.077 S 
BRANCH  18  19
ATOM     19  C   UNL A   1      -0.297   3.438   1.391  0.00  0.00    +0.173 C 
BRANCH  19  20
ATOM     20  C   UNL A   1       0.236   2.850   2.686  0.00  0.00    +0.228 C 
ATOM     21  O   UNL A   1       1.242   3.314   3.218  0.00  0.00    -0.275 OA
ATOM     22  N   UNL A   1      -0.483   1.749   3.131  0.00  0.00    -0.285 N 
ATOM     23  H   UNL A   1      -1.155   1.346   2.481  0.00  0.00    +0.155 HD
BRANCH  22  24
ATOM     24  C   UNL A   1      -0.210   0.998   4.293  0.00  0.00    +0.033 A 
ATOM     25  C   UNL A   1       0.600   1.454   5.336  0.00  0.00    +0.024 A 
ATOM     26  C   UNL A   1       0.885   0.630   6.432  0.00  0.00    +0.017 A 
ATOM     27  C   UNL A   1       0.357  -0.662   6.502  0.00  0.00    +0.059 A 
ATOM     28  C   UNL A   1      -0.487  -1.103   5.475  0.00  0.00    +0.017 A 
ATOM     29  C   UNL A   1      -0.781  -0.275   4.388  0.00  0.00    +0.024 A 
BRANCH  27  30
ATOM     30  C   UNL A   1       0.731  -1.518   7.660  0.00  0.00    +0.339 C 
ATOM     31  O   UNL A   1       1.468  -1.156   8.563  0.00  0.00    -0.245 OA
BRANCH  30  32
ATOM     32  O   UNL A   1       0.152  -2.739   7.546  0.00  0.00    -0.465 OA
ATOM     33  C   UNL A   1       0.484  -3.646   8.598  0.00  0.00    +0.280 C 
ENDBRANCH  30  32
ENDBRANCH  27  30
ENDBRANCH  22  24
ENDBRANCH  19  20
ENDBRANCH  18  19
ENDBRANCH   6  18
TORSDOF 8
