REMARK SMILES COC(=O)c1ccc(NC(=O)CSc2nnc(-c3ccc(NC(C)=O)cc3)n2C)cc1
REMARK SMILES IDX 12 1 13 2 14 3 28 4 29 5 17 6 16 7 15 8 18 9 19 10 27 11
REMARK SMILES IDX 20 12 26 13 21 14 22 15 23 16 25 18 24 19 10 20 11 21 9 22
REMARK SMILES IDX 8 24 7 25 30 26 6 27 31 28 5 29 3 30 4 31 2 32 1 33
REMARK H PARENT 22 17 9 23
REMARK Flexibility Score: inf
ROOT
ATOM      1  C   UNL     1      -1.927   4.499   1.555  1.00  0.00     0.178 C 
ENDROOT
BRANCH   1   2
ATOM      2  S   UNL     1      -0.442   4.004   2.478  1.00  0.00    -0.076 SA
BRANCH   2   3
ATOM      3  C   UNL     1       0.412   3.109   1.273  1.00  0.00     0.191 A 
ATOM      4  N   UNL     1       1.457   2.267   1.531  1.00  0.00    -0.305 N 
ATOM      5  C   UNL     1       2.145   2.090   2.784  1.00  0.00     0.154 C 
ATOM      6  C   UNL     1       1.744   1.654   0.327  1.00  0.00     0.164 A 
ATOM      7  N   UNL     1       0.973   2.193  -0.603  1.00  0.00    -0.129 NA
ATOM      8  N   UNL     1       0.134   3.097  -0.008  1.00  0.00    -0.123 NA
BRANCH   6   9
ATOM      9  C   UNL     1       2.743   0.615   0.089  1.00  0.00     0.019 A 
ATOM     10  C   UNL     1       3.575   0.701  -1.032  1.00  0.00     0.014 A 
ATOM     11  C   UNL     1       2.867  -0.499   0.927  1.00  0.00     0.014 A 
ATOM     12  C   UNL     1       4.532  -0.288  -1.290  1.00  0.00     0.027 A 
ATOM     13  C   UNL     1       3.831  -1.484   0.673  1.00  0.00     0.027 A 
ATOM     14  C   UNL     1       4.674  -1.385  -0.433  1.00  0.00     0.041 A 
BRANCH  14  15
ATOM     15  N   UNL     1       5.659  -2.339  -0.761  1.00  0.00    -0.326 N 
ATOM     16  C   UNL     1       6.040  -3.441  -0.016  1.00  0.00     0.221 C 
ATOM     17  H   UNL     1       6.165  -2.175  -1.623  1.00  0.00     0.169 HD
ATOM     18  O   UNL     1       5.638  -3.751   1.100  1.00  0.00    -0.275 OA
ATOM     19  C   UNL     1       7.094  -4.266  -0.714  1.00  0.00     0.114 C 
ENDBRANCH  14  15
ENDBRANCH   6   9
ENDBRANCH   2   3
ENDBRANCH   1   2
BRANCH   1  20
ATOM     20  C   UNL     1      -2.880   3.325   1.384  1.00  0.00     0.234 C 
ATOM     21  O   UNL     1      -3.785   3.133   2.193  1.00  0.00    -0.274 OA
ATOM     22  N   UNL     1      -2.607   2.554   0.267  1.00  0.00    -0.325 N 
ATOM     23  H   UNL     1      -1.734   2.759  -0.221  1.00  0.00     0.169 HD
BRANCH  22  24
ATOM     24  C   UNL     1      -3.322   1.439  -0.212  1.00  0.00     0.041 A 
ATOM     25  C   UNL     1      -4.539   1.004   0.318  1.00  0.00     0.027 A 
ATOM     26  C   UNL     1      -2.768   0.748  -1.296  1.00  0.00     0.027 A 
ATOM     27  C   UNL     1      -5.198  -0.106  -0.230  1.00  0.00     0.018 A 
ATOM     28  C   UNL     1      -3.423  -0.359  -1.847  1.00  0.00     0.018 A 
ATOM     29  C   UNL     1      -4.645  -0.793  -1.318  1.00  0.00     0.060 A 
BRANCH  29  30
ATOM     30  C   UNL     1      -5.308  -1.970  -1.943  1.00  0.00     0.337 C 
ATOM     31  O   UNL     1      -4.816  -2.616  -2.855  1.00  0.00    -0.246 OA
BRANCH  30  32
ATOM     32  O   UNL     1      -6.513  -2.203  -1.365  1.00  0.00    -0.465 OA
ATOM     33  C   UNL     1      -7.217  -3.316  -1.918  1.00  0.00     0.282 C 
ENDBRANCH  30  32
ENDBRANCH  29  30
ENDBRANCH  22  24
ENDBRANCH   1  20
TORSDOF 8
