REMARK SMILES Cn1c(COc2cccc3cccnc23)nnc1SCC(N)=O
REMARK SMILES IDX 2 1 1 2 3 3 16 4 17 5 18 6 4 7 5 8 6 9 7 10 15 11 8 12 10 13
REMARK SMILES IDX 14 14 9 15 11 16 13 17 12 18 19 19 20 20 21 21 23 22 22 23
REMARK H PARENT 22 24 22 25
REMARK Flexibility Score: inf
ROOT
ATOM      1  N   UNL     1       0.583   2.174   0.731  1.00  0.00    -0.306 N 
ATOM      2  C   UNL     1      -0.129   1.991   1.971  1.00  0.00     0.154 C 
ATOM      3  C   UNL     1       0.038   2.232  -0.533  1.00  0.00     0.171 A 
ATOM      4  N   UNL     1       1.007   2.424  -1.408  1.00  0.00    -0.131 NA
ATOM      5  N   UNL     1       2.195   2.465  -0.726  1.00  0.00    -0.123 NA
ATOM      6  C   UNL     1       1.932   2.292   0.549  1.00  0.00     0.191 A 
ENDROOT
BRANCH   3   7
ATOM      7  C   UNL     1      -1.410   2.100  -0.854  1.00  0.00     0.307 C 
BRANCH   7   8
ATOM      8  O   UNL     1      -1.951   0.980  -0.159  1.00  0.00    -0.483 OA
BRANCH   8   9
ATOM      9  C   UNL     1      -1.834  -0.287  -0.687  1.00  0.00     0.146 A 
ATOM     10  C   UNL     1      -1.104  -0.592  -1.844  1.00  0.00     0.049 A 
ATOM     11  C   UNL     1      -2.499  -1.295   0.037  1.00  0.00     0.112 A 
ATOM     12  C   UNL     1      -1.040  -1.903  -2.306  1.00  0.00     0.005 A 
ATOM     13  C   UNL     1      -2.426  -2.619  -0.451  1.00  0.00     0.004 A 
ATOM     14  N   UNL     1      -3.188  -1.008   1.169  1.00  0.00    -0.252 NA
ATOM     15  C   UNL     1      -1.701  -2.913  -1.616  1.00  0.00     0.010 A 
ATOM     16  C   UNL     1      -3.089  -3.632   0.256  1.00  0.00     0.012 A 
ATOM     17  C   UNL     1      -3.815  -2.010   1.823  1.00  0.00     0.112 A 
ATOM     18  C   UNL     1      -3.796  -3.325   1.410  1.00  0.00     0.021 A 
ENDBRANCH   8   9
ENDBRANCH   7   8
ENDBRANCH   3   7
BRANCH   6  19
ATOM     19  S   UNL     1       3.094   2.200   1.823  1.00  0.00    -0.076 SA
BRANCH  19  20
ATOM     20  C   UNL     1       4.651   2.272   0.892  1.00  0.00     0.177 C 
BRANCH  20  21
ATOM     21  C   UNL     1       4.908   0.963   0.172  1.00  0.00     0.227 C 
ATOM     22  O   UNL     1       5.409  -0.021   0.707  1.00  0.00    -0.274 OA
ATOM     23  N   UNL     1       4.549   0.932  -1.148  1.00  0.00    -0.369 N 
ATOM     24  H   UNL     1       3.759   1.512  -1.436  1.00  0.00     0.159 HD
ATOM     25  H   UNL     1       4.597   0.021  -1.585  1.00  0.00     0.159 HD
ENDBRANCH  20  21
ENDBRANCH  19  20
ENDBRANCH   6  19
TORSDOF 6
