REMARK  Name = *****
REMARK  7 active torsions:
REMARK  status: ('A' for Active; 'I' for Inactive)
REMARK    1  A    between atoms: N_1  and  C_2
REMARK    2  A    between atoms: C_3  and  C_12
REMARK    3  A    between atoms: C_6  and  S_7
REMARK    4  A    between atoms: S_7  and  C_8
REMARK    5  A    between atoms: C_8  and  C_9
REMARK    6  A    between atoms: C_12  and  O_13
REMARK    7  A    between atoms: O_13  and  C_14
REMARK                            x       y       z     vdW  Elec       q    Type
REMARK                         _______ _______ _______ _____ _____    ______ ____
ROOT
ATOM      1  N   UNL A   1      -0.236  -0.257  -1.084  0.00  0.00    -0.306 N 
ATOM      2  C   UNL A   1      -0.248  -0.553  -2.492  0.00  0.00    +0.153 C 
ATOM      3  C   UNL A   1       0.100  -1.097  -0.034  0.00  0.00    +0.172 A 
ATOM      4  N   UNL A   1      -0.003  -0.423   1.096  0.00  0.00    -0.130 NA
ATOM      5  N   UNL A   1      -0.404   0.857   0.807  0.00  0.00    -0.122 NA
ATOM      6  C   UNL A   1      -0.529   0.961  -0.488  0.00  0.00    +0.192 A 
ENDROOT
BRANCH   6   7
ATOM      7  S   UNL A   1      -1.067   2.402  -1.302  0.00  0.00    -0.077 S 
BRANCH   7   8
ATOM      8  C   UNL A   1       0.141   3.705  -0.852  0.00  0.00    +0.172 C 
BRANCH   8   9
ATOM      9  C   UNL A   1       1.533   3.396  -1.338  0.00  0.00    +0.221 C 
ATOM     10  O   UNL A   1       1.986   3.739  -2.450  0.00  0.00    -0.275 OA
ATOM     11  N   UNL A   1       2.317   2.730  -0.458  0.00  0.00    -0.329 N 
ATOM     12  H   UNL A   1       1.982   2.415   0.451  0.00  0.00    +0.145 HD
ATOM     13  H   UNL A   1       3.257   2.494  -0.739  0.00  0.00    +0.145 HD
ENDBRANCH   8   9
ENDBRANCH   7   8
ENDBRANCH   6   7
BRANCH   3  14
ATOM     14  C   UNL A   1       0.479  -2.547  -0.093  0.00  0.00    +0.305 C 
BRANCH  14  15
ATOM     15  O   UNL A   1       1.901  -2.617  -0.208  0.00  0.00    -0.482 OA
BRANCH  15  16
ATOM     16  C   UNL A   1       2.431  -3.889  -0.307  0.00  0.00    +0.147 A 
ATOM     17  C   UNL A   1       1.862  -4.974   0.380  0.00  0.00    +0.048 A 
ATOM     18  C   UNL A   1       2.354  -6.257   0.185  0.00  0.00    +0.004 A 
ATOM     19  C   UNL A   1       3.430  -6.457  -0.676  0.00  0.00    +0.010 A 
ATOM     20  C   UNL A   1       4.026  -5.375  -1.343  0.00  0.00    +0.004 A 
ATOM     21  C   UNL A   1       3.541  -4.060  -1.161  0.00  0.00    +0.113 A 
ATOM     22  N   UNL A   1       4.086  -3.019  -1.838  0.00  0.00    -0.251 NA
ATOM     23  C   UNL A   1       5.118  -3.254  -2.681  0.00  0.00    +0.111 A 
ATOM     24  C   UNL A   1       5.654  -4.504  -2.906  0.00  0.00    +0.020 A 
ATOM     25  C   UNL A   1       5.096  -5.579  -2.229  0.00  0.00    +0.012 A 
ENDBRANCH  15  16
ENDBRANCH  14  15
ENDBRANCH   3  14
TORSDOF 6
