REMARK SMILES CN1CCN(C(=O)CN(c2cc(C(F)(F)F)ccc2Cl)S(=O)(=O)c2ccccc2)CC1
REMARK SMILES IDX 9 1 10 2 12 3 11 4 17 5 18 6 19 7 20 8 13 9 14 10 15 11
REMARK SMILES IDX 16 12 8 13 6 14 7 15 5 16 4 17 30 18 3 19 31 20 2 21 1 22
REMARK SMILES IDX 21 23 22 24 23 25 24 26 25 27 29 28 26 29 28 30 27 31
REMARK H PARENT
REMARK Flexibility Score: inf
ROOT
ATOM      1  N   UNL     1      -0.543  -0.754  -1.078  1.00  0.00    -0.255 N 
ENDROOT
BRANCH   1   2
ATOM      2  C   UNL     1      -1.778  -1.459  -1.287  1.00  0.00     0.072 A 
ATOM      3  C   UNL     1      -4.044  -1.982  -0.536  1.00  0.00     0.058 A 
ATOM      4  C   UNL     1      -2.802  -1.358  -0.333  1.00  0.00     0.041 A 
ATOM      5  C   UNL     1      -4.245  -2.729  -1.705  1.00  0.00     0.015 A 
ATOM      6  C   UNL     1      -3.229  -2.840  -2.657  1.00  0.00     0.023 A 
ATOM      7  C   UNL     1      -2.000  -2.207  -2.454  1.00  0.00     0.065 A 
ATOM      8  Cl  UNL     1      -0.775  -2.427  -3.651  1.00  0.00    -0.082 Cl
BRANCH   3   9
ATOM      9  C   UNL     1      -5.128  -1.865   0.509  1.00  0.00     0.416 C 
ATOM     10  F   UNL     1      -5.216  -0.611   1.032  1.00  0.00    -0.166 F 
ATOM     11  F   UNL     1      -4.914  -2.697   1.565  1.00  0.00    -0.166 F 
ATOM     12  F   UNL     1      -6.370  -2.162   0.038  1.00  0.00    -0.166 F 
ENDBRANCH   3   9
ENDBRANCH   1   2
BRANCH   1  13
ATOM     13  C   UNL     1       0.245  -1.054   0.139  1.00  0.00     0.235 C 
BRANCH  13  14
ATOM     14  C   UNL     1       1.693  -1.378  -0.239  1.00  0.00     0.243 C 
ATOM     15  O   UNL     1       1.921  -2.162  -1.167  1.00  0.00    -0.273 OA
ATOM     16  N   UNL     1       2.738  -0.827   0.508  1.00  0.00    -0.339 N 
ATOM     17  C   UNL     1       2.567   0.289   1.443  1.00  0.00     0.135 C 
ATOM     18  C   UNL     1       4.074  -0.951  -0.089  1.00  0.00     0.135 C 
ATOM     19  C   UNL     1       3.773   0.503   2.381  1.00  0.00     0.105 C 
ATOM     20  C   UNL     1       5.223  -0.706   0.905  1.00  0.00     0.105 C 
ATOM     21  N   UNL     1       5.089   0.515   1.724  1.00  0.00    -0.303 NA
ATOM     22  C   UNL     1       5.291   1.725   0.928  1.00  0.00     0.105 C 
ENDBRANCH  13  14
ENDBRANCH   1  13
BRANCH   1  23
ATOM     23  S   UNL     1      -0.397   0.804  -1.742  1.00  0.00     0.264 S 
ATOM     24  O   UNL     1       0.943   1.291  -1.481  1.00  0.00    -0.201 OA
ATOM     25  O   UNL     1      -0.960   0.834  -3.075  1.00  0.00    -0.201 OA
BRANCH  23  26
ATOM     26  C   UNL     1      -1.492   1.780  -0.717  1.00  0.00     0.088 A 
ATOM     27  C   UNL     1      -0.993   2.425   0.420  1.00  0.00     0.022 A 
ATOM     28  C   UNL     1      -2.828   1.943  -1.098  1.00  0.00     0.022 A 
ATOM     29  C   UNL     1      -1.852   3.192   1.207  1.00  0.00     0.001 A 
ATOM     30  C   UNL     1      -3.681   2.710  -0.305  1.00  0.00     0.001 A 
ATOM     31  C   UNL     1      -3.195   3.327   0.848  1.00  0.00     0.000 A 
ENDBRANCH  23  26
ENDBRANCH   1  23
TORSDOF 6
