REMARK SMILES CCn1c(SCC(=O)Nc2cccc(C(C)=O)c2)nnc1-c1ccncc1
REMARK SMILES IDX 6 1 7 2 9 3 8 5 10 6 18 7 11 8 14 9 12 10 13 11 15 12 17 13
REMARK SMILES IDX 16 14 5 15 4 16 19 17 3 18 20 19 21 20 2 21 1 22 22 23 23 24
REMARK SMILES IDX 27 25 24 26 26 27 25 28
REMARK H PARENT 9 4
REMARK Flexibility Score: inf
ROOT
ATOM      1  C   UNL     1       0.425  -1.976  -2.368  1.00  0.00     0.178 C 
ENDROOT
BRANCH   1   2
ATOM      2  C   UNL     1       1.670  -1.795  -1.503  1.00  0.00     0.234 C 
ATOM      3  N   UNL     1       2.026  -0.488  -1.231  1.00  0.00    -0.325 N 
ATOM      4  H   UNL     1       1.392   0.217  -1.591  1.00  0.00     0.169 HD
ATOM      5  O   UNL     1       2.314  -2.789  -1.167  1.00  0.00    -0.274 OA
BRANCH   3   6
ATOM      6  C   UNL     1       3.115  -0.019  -0.470  1.00  0.00     0.041 A 
ATOM      7  C   UNL     1       4.037  -0.850   0.172  1.00  0.00     0.038 A 
ATOM      8  C   UNL     1       3.258   1.371  -0.361  1.00  0.00     0.026 A 
ATOM      9  C   UNL     1       5.094  -0.302   0.914  1.00  0.00     0.019 A 
ATOM     10  C   UNL     1       4.309   1.924   0.372  1.00  0.00     0.003 A 
ATOM     11  C   UNL     1       5.227   1.089   1.005  1.00  0.00     0.012 A 
BRANCH   9  12
ATOM     12  C   UNL     1       6.094  -1.157   1.621  1.00  0.00     0.159 C 
ATOM     13  O   UNL     1       7.051  -0.633   2.191  1.00  0.00    -0.295 OA
ATOM     14  C   UNL     1       5.913  -2.653   1.623  1.00  0.00     0.093 C 
ENDBRANCH   9  12
ENDBRANCH   3   6
ENDBRANCH   1   2
BRANCH   1  15
ATOM     15  S   UNL     1      -0.595  -0.486  -2.606  1.00  0.00    -0.076 SA
BRANCH  15  16
ATOM     16  C   UNL     1      -1.420  -0.411  -1.089  1.00  0.00     0.191 A 
ATOM     17  N   UNL     1      -1.048  -1.021   0.008  1.00  0.00    -0.123 NA
ATOM     18  N   UNL     1      -2.547   0.331  -0.853  1.00  0.00    -0.302 N 
ATOM     19  N   UNL     1      -1.933  -0.673   0.996  1.00  0.00    -0.129 NA
ATOM     20  C   UNL     1      -2.849   0.126   0.480  1.00  0.00     0.164 A 
BRANCH  18  21
ATOM     21  C   UNL     1      -3.214   1.235  -1.767  1.00  0.00     0.123 C 
ATOM     22  C   UNL     1      -4.157   0.528  -2.727  1.00  0.00     0.028 C 
ENDBRANCH  18  21
BRANCH  20  23
ATOM     23  C   UNL     1      -3.945   0.731   1.228  1.00  0.00     0.022 A 
ATOM     24  C   UNL     1      -3.659   1.531   2.336  1.00  0.00     0.032 A 
ATOM     25  C   UNL     1      -5.278   0.503   0.888  1.00  0.00     0.032 A 
ATOM     26  C   UNL     1      -4.713   2.096   3.033  1.00  0.00     0.111 A 
ATOM     27  C   UNL     1      -6.264   1.112   1.647  1.00  0.00     0.111 A 
ATOM     28  N   UNL     1      -6.010   1.915   2.702  1.00  0.00    -0.265 NA
ENDBRANCH  20  23
ENDBRANCH  15  16
ENDBRANCH   1  15
TORSDOF 7
