REMARK  Name = *****
REMARK  9 active torsions:
REMARK  status: ('A' for Active; 'I' for Inactive)
REMARK    1  A    between atoms: N_1  and  C_2
REMARK    2  A    between atoms: C_4  and  C_8
REMARK    3  A    between atoms: C_8  and  C_10
REMARK    4  A    between atoms: C_11  and  C_13
REMARK    5  A    between atoms: C_13  and  S_14
REMARK    6  A    between atoms: S_14  and  C_15
REMARK    7  A    between atoms: C_18  and  C_22
REMARK    8  A    between atoms: N_19  and  C_20
REMARK    9  A    between atoms: C_20  and  C_21
REMARK                            x       y       z     vdW  Elec       q    Type
REMARK                         _______ _______ _______ _____ _____    ______ ____
ROOT
ATOM      1  C   UNL A   1       3.603  -0.749  -1.281  0.00  0.00    +0.173 C 
ENDROOT
BRANCH   1   3
ATOM      2  N   UNL A   1       3.319   0.029   1.051  0.00  0.00    -0.285 N 
ATOM      3  C   UNL A   1       2.736  -0.114  -0.200  0.00  0.00    +0.228 C 
ATOM      4  O   UNL A   1       1.569   0.185  -0.467  0.00  0.00    -0.275 OA
ATOM      5  H   UNL A   1       4.324  -0.076   1.079  0.00  0.00    +0.155 HD
BRANCH   2   6
ATOM      6  C   UNL A   1       2.680   0.506   2.213  0.00  0.00    +0.034 A 
ATOM      7  C   UNL A   1       1.288   0.565   2.356  0.00  0.00    +0.034 A 
ATOM      8  C   UNL A   1       0.709   1.119   3.504  0.00  0.00    +0.019 A 
ATOM      9  C   UNL A   1       1.530   1.572   4.543  0.00  0.00    +0.011 A 
ATOM     10  C   UNL A   1       2.915   1.477   4.428  0.00  0.00    +0.003 A 
ATOM     11  C   UNL A   1       3.487   0.942   3.269  0.00  0.00    +0.023 A 
BRANCH   8  12
ATOM     12  C   UNL A   1      -0.767   1.244   3.659  0.00  0.00    +0.160 C 
ATOM     13  O   UNL A   1      -1.251   1.294   4.790  0.00  0.00    -0.292 OA
ATOM     14  C   UNL A   1      -1.644   1.342   2.436  0.00  0.00    +0.091 C 
ENDBRANCH   8  12
ENDBRANCH   2   6
ENDBRANCH   1   3
BRANCH   1  15
ATOM     15  S   UNL A   1       5.396  -0.448  -1.108  0.00  0.00    -0.077 S 
BRANCH  15  16
ATOM     16  C   UNL A   1       5.950  -1.318  -2.509  0.00  0.00    +0.192 A 
ATOM     17  N   UNL A   1       5.163  -1.959  -3.336  0.00  0.00    -0.122 NA
ATOM     18  N   UNL A   1       5.944  -2.511  -4.310  0.00  0.00    -0.128 NA
ATOM     19  C   UNL A   1       7.212  -2.224  -4.065  0.00  0.00    +0.165 A 
ATOM     20  N   UNL A   1       7.256  -1.433  -2.924  0.00  0.00    -0.302 N 
BRANCH  19  21
ATOM     21  C   UNL A   1       8.310  -2.665  -4.938  0.00  0.00    +0.022 A 
ATOM     22  C   UNL A   1       8.073  -2.761  -6.315  0.00  0.00    +0.031 A 
ATOM     23  C   UNL A   1       9.077  -3.236  -7.143  0.00  0.00    +0.111 A 
ATOM     24  N   UNL A   1      10.293  -3.614  -6.701  0.00  0.00    -0.263 NA
ATOM     25  C   UNL A   1      10.500  -3.539  -5.373  0.00  0.00    +0.111 A 
ATOM     26  C   UNL A   1       9.553  -3.086  -4.467  0.00  0.00    +0.031 A 
ENDBRANCH  19  21
BRANCH  20  27
ATOM     27  C   UNL A   1       8.400  -0.719  -2.395  0.00  0.00    +0.122 C 
ATOM     28  C   UNL A   1       9.109  -1.433  -1.253  0.00  0.00    +0.027 C 
ENDBRANCH  20  27
ENDBRANCH  15  16
ENDBRANCH   1  15
TORSDOF 7
