REMARK SMILES COc1ccc(C(=O)CSc2nnc(-c3ccc(OC)c(OC)c3)n2-c2ccccc2)cc1
REMARK SMILES IDX 9 1 10 2 11 3 25 4 14 5 12 6 13 7 26 8 27 9 31 10 28 11
REMARK SMILES IDX 30 12 29 13 15 14 24 15 16 16 21 17 17 18 18 19 22 20 23 21
REMARK SMILES IDX 19 22 20 23 7 24 8 25 6 26 5 27 32 28 4 29 33 30 3 31 2 32
REMARK SMILES IDX 1 33
REMARK H PARENT
REMARK Flexibility Score: inf
ROOT
ATOM      1  C   UNL     1       3.645  -1.360   1.656  1.00  0.00     0.159 C 
ENDROOT
BRANCH   1   2
ATOM      2  S   UNL     1       2.159  -1.883   2.562  1.00  0.00    -0.077 SA
BRANCH   2   3
ATOM      3  C   UNL     1       0.930  -1.423   1.420  1.00  0.00     0.196 A 
ATOM      4  N   UNL     1      -0.253  -0.761   1.722  1.00  0.00    -0.270 N 
ATOM      5  C   UNL     1      -0.830  -0.514   0.470  1.00  0.00     0.169 A 
ATOM      6  N   UNL     1       1.090  -1.496   0.125  1.00  0.00    -0.122 NA
ATOM      7  N   UNL     1       0.006  -0.916  -0.469  1.00  0.00    -0.129 NA
BRANCH   4   8
ATOM      8  C   UNL     1      -0.712  -0.319   2.993  1.00  0.00     0.050 A 
ATOM      9  C   UNL     1      -0.661  -1.163   4.108  1.00  0.00     0.027 A 
ATOM     10  C   UNL     1      -1.214   0.986   3.132  1.00  0.00     0.027 A 
ATOM     11  C   UNL     1      -1.087  -0.700   5.350  1.00  0.00     0.002 A 
ATOM     12  C   UNL     1      -1.643   1.440   4.377  1.00  0.00     0.002 A 
ATOM     13  C   UNL     1      -1.577   0.600   5.486  1.00  0.00     0.000 A 
ENDBRANCH   4   8
BRANCH   5  14
ATOM     14  C   UNL     1      -2.157   0.044   0.182  1.00  0.00     0.024 A 
ATOM     15  C   UNL     1      -2.326   0.882  -0.927  1.00  0.00     0.062 A 
ATOM     16  C   UNL     1      -3.281  -0.266   0.959  1.00  0.00     0.016 A 
ATOM     17  C   UNL     1      -3.584   1.416  -1.226  1.00  0.00     0.161 A 
ATOM     18  C   UNL     1      -4.535   0.293   0.673  1.00  0.00     0.051 A 
ATOM     19  C   UNL     1      -4.697   1.148  -0.419  1.00  0.00     0.160 A 
BRANCH  17  20
ATOM     20  O   UNL     1      -3.694   2.277  -2.287  1.00  0.00    -0.493 OA
ATOM     21  C   UNL     1      -3.896   1.544  -3.495  1.00  0.00     0.278 C 
ENDBRANCH  17  20
BRANCH  19  22
ATOM     22  O   UNL     1      -5.879   1.732  -0.789  1.00  0.00    -0.493 OA
ATOM     23  C   UNL     1      -6.958   1.651   0.132  1.00  0.00     0.278 C 
ENDBRANCH  19  22
ENDBRANCH   5  14
ENDBRANCH   2   3
ENDBRANCH   1   2
BRANCH   1  24
ATOM     24  C   UNL     1       4.008  -2.337   0.551  1.00  0.00     0.173 C 
ATOM     25  O   UNL     1       4.064  -3.552   0.725  1.00  0.00    -0.293 OA
BRANCH  24  26
ATOM     26  C   UNL     1       4.351  -1.792  -0.791  1.00  0.00     0.019 A 
ATOM     27  C   UNL     1       4.962  -0.544  -0.949  1.00  0.00     0.015 A 
ATOM     28  C   UNL     1       4.057  -2.567  -1.921  1.00  0.00     0.015 A 
ATOM     29  C   UNL     1       5.251  -0.062  -2.238  1.00  0.00     0.047 A 
ATOM     30  C   UNL     1       4.347  -2.081  -3.200  1.00  0.00     0.047 A 
ATOM     31  C   UNL     1       4.942  -0.829  -3.366  1.00  0.00     0.118 A 
BRANCH  31  32
ATOM     32  O   UNL     1       5.172  -0.473  -4.673  1.00  0.00    -0.497 OA
ATOM     33  C   UNL     1       5.773   0.797  -4.896  1.00  0.00     0.278 C 
ENDBRANCH  31  32
ENDBRANCH  24  26
ENDBRANCH   1  24
TORSDOF 9
