REMARK  Name = *****
REMARK  12 active torsions:
REMARK  status: ('A' for Active; 'I' for Inactive)
REMARK    1  A    between atoms: N_1  and  C_2
REMARK    2  A    between atoms: C_8  and  S_22
REMARK    3  A    between atoms: C_11  and  C_12
REMARK    4  A    between atoms: C_14  and  O_20
REMARK    5  A    between atoms: C_15  and  O_18
REMARK    6  A    between atoms: O_18  and  C_19
REMARK    7  A    between atoms: O_20  and  C_21
REMARK    8  A    between atoms: S_22  and  C_23
REMARK    9  A    between atoms: C_23  and  C_24
REMARK   10  A    between atoms: C_24  and  C_26
REMARK   11  A    between atoms: C_29  and  O_32
REMARK   12  A    between atoms: O_32  and  C_33
REMARK                            x       y       z     vdW  Elec       q    Type
REMARK                         _______ _______ _______ _____ _____    ______ ____
ROOT
ATOM      1  N   UNL A   1      -0.319  -1.317   0.051  0.00  0.00    -0.270 N 
ATOM      2  C   UNL A   1       0.939  -0.710   0.017  0.00  0.00    +0.197 A 
ATOM      3  N   UNL A   1       0.828   0.587  -0.093  0.00  0.00    -0.122 NA
ATOM      4  N   UNL A   1      -0.505   0.891  -0.128  0.00  0.00    -0.128 NA
ATOM      5  C   UNL A   1      -1.211  -0.231  -0.064  0.00  0.00    +0.170 A 
ENDROOT
BRANCH   1   6
ATOM      6  C   UNL A   1      -0.628  -2.710   0.201  0.00  0.00    +0.051 A 
ATOM      7  C   UNL A   1      -1.762  -3.117   0.915  0.00  0.00    +0.026 A 
ATOM      8  C   UNL A   1      -2.080  -4.475   1.036  0.00  0.00    +0.002 A 
ATOM      9  C   UNL A   1      -1.237  -5.442   0.498  0.00  0.00    +0.000 A 
ATOM     10  C   UNL A   1      -0.093  -5.054  -0.188  0.00  0.00    +0.002 A 
ATOM     11  C   UNL A   1       0.196  -3.697  -0.359  0.00  0.00    +0.026 A 
ENDBRANCH   1   6
BRANCH   5  12
ATOM     12  C   UNL A   1      -2.687  -0.234  -0.145  0.00  0.00    +0.023 A 
ATOM     13  C   UNL A   1      -3.409   0.803   0.480  0.00  0.00    +0.061 A 
ATOM     14  C   UNL A   1      -4.818   0.845   0.480  0.00  0.00    +0.162 A 
ATOM     15  C   UNL A   1      -5.526  -0.197  -0.140  0.00  0.00    +0.162 A 
ATOM     16  C   UNL A   1      -4.809  -1.204  -0.802  0.00  0.00    +0.050 A 
ATOM     17  C   UNL A   1      -3.412  -1.203  -0.841  0.00  0.00    +0.015 A 
BRANCH  15  18
ATOM     18  O   UNL A   1      -6.879  -0.403  -0.204  0.00  0.00    -0.491 OA
ATOM     19  C   UNL A   1      -7.759   0.575   0.329  0.00  0.00    +0.277 C 
ENDBRANCH  15  18
BRANCH  14  20
ATOM     20  O   UNL A   1      -5.537   1.851   1.068  0.00  0.00    -0.491 OA
ATOM     21  C   UNL A   1      -4.838   2.960   1.613  0.00  0.00    +0.277 C 
ENDBRANCH  14  20
ENDBRANCH   5  12
BRANCH   2  22
ATOM     22  S   UNL A   1       2.461  -1.538   0.196  0.00  0.00    -0.078 S 
BRANCH  22  23
ATOM     23  C   UNL A   1       3.555  -0.283   0.892  0.00  0.00    +0.157 C 
BRANCH  23  24
ATOM     24  C   UNL A   1       3.280   0.014   2.356  0.00  0.00    +0.173 C 
ATOM     25  O   UNL A   1       2.293  -0.397   2.964  0.00  0.00    -0.291 OA
BRANCH  24  26
ATOM     26  C   UNL A   1       4.285   0.844   3.098  0.00  0.00    +0.018 A 
ATOM     27  C   UNL A   1       5.468   1.306   2.507  0.00  0.00    +0.015 A 
ATOM     28  C   UNL A   1       6.387   2.062   3.249  0.00  0.00    +0.046 A 
ATOM     29  C   UNL A   1       6.133   2.368   4.586  0.00  0.00    +0.120 A 
ATOM     30  C   UNL A   1       4.953   1.913   5.174  0.00  0.00    +0.046 A 
ATOM     31  C   UNL A   1       4.035   1.154   4.440  0.00  0.00    +0.015 A 
BRANCH  29  32
ATOM     32  O   UNL A   1       6.946   3.089   5.414  0.00  0.00    -0.495 OA
ATOM     33  C   UNL A   1       8.152   3.594   4.855  0.00  0.00    +0.277 C 
ENDBRANCH  29  32
ENDBRANCH  24  26
ENDBRANCH  23  24
ENDBRANCH  22  23
ENDBRANCH   2  22
TORSDOF 9
