REMARK SMILES Cc1c(NC(=O)[C@@H]2CCCN2S(=O)(=O)c2ccccc2)c(=O)n(-c2ccccc2)n1C
REMARK SMILES IDX 7 1 11 2 10 3 9 4 8 5 5 6 4 7 6 9 3 10 23 11 30 12 21 13
REMARK SMILES IDX 2 14 31 15 22 16 1 17 24 18 25 19 29 20 26 21 28 22 27 23
REMARK SMILES IDX 12 24 13 25 14 26 15 27 16 28 20 29 17 30 19 31 18 32
REMARK H PARENT 4 8
REMARK Flexibility Score: inf
ROOT
ATOM      1  C   UNL     1      -2.229  -0.121  -2.466  1.00  0.00     0.162 C 
ATOM      2  N   UNL     1      -3.274  -0.845  -1.706  1.00  0.00    -0.185 NA
ATOM      3  C   UNL     1      -4.606  -0.327  -2.040  1.00  0.00     0.103 C 
ATOM      4  C   UNL     1      -4.408   0.247  -3.433  1.00  0.00     0.019 C 
ATOM      5  C   UNL     1      -3.031   0.876  -3.326  1.00  0.00     0.032 C 
ENDROOT
BRANCH   1   6
ATOM      6  C   UNL     1      -1.141   0.599  -1.671  1.00  0.00     0.243 C 
ATOM      7  N   UNL     1      -0.027  -0.183  -1.438  1.00  0.00    -0.319 N 
ATOM      8  H   UNL     1      -0.189  -1.197  -1.413  1.00  0.00     0.170 HD
ATOM      9  O   UNL     1      -1.280   1.752  -1.274  1.00  0.00    -0.273 OA
BRANCH   7  10
ATOM     10  C   UNL     1       1.171   0.190  -0.884  1.00  0.00     0.130 C 
ATOM     11  N   UNL     1       3.184  -0.189   0.210  1.00  0.00    -0.216 N 
ATOM     12  N   UNL     1       3.051   1.204  -0.051  1.00  0.00    -0.283 N 
ATOM     13  C   UNL     1       2.090  -0.861  -0.340  1.00  0.00     0.295 C 
ATOM     14  C   UNL     1       1.809   1.362  -0.704  1.00  0.00     0.061 C 
ATOM     15  C   UNL     1       4.251   1.806  -0.658  1.00  0.00     0.172 C 
ATOM     16  O   UNL     1       1.819  -2.052  -0.379  1.00  0.00    -0.265 OA
ATOM     17  C   UNL     1       1.387   2.714  -1.194  1.00  0.00     0.069 C 
BRANCH  11  18
ATOM     18  C   UNL     1       4.006  -0.680   1.259  1.00  0.00     0.067 A 
ATOM     19  C   UNL     1       4.219  -2.056   1.420  1.00  0.00     0.028 A 
ATOM     20  C   UNL     1       4.621   0.193   2.170  1.00  0.00     0.028 A 
ATOM     21  C   UNL     1       5.032  -2.544   2.449  1.00  0.00     0.002 A 
ATOM     22  C   UNL     1       5.431  -0.293   3.201  1.00  0.00     0.002 A 
ATOM     23  C   UNL     1       5.639  -1.663   3.338  1.00  0.00     0.000 A 
ENDBRANCH  11  18
ENDBRANCH   7  10
ENDBRANCH   1   6
BRANCH   2  24
ATOM     24  S   UNL     1      -2.992  -1.648  -0.272  1.00  0.00     0.243 S 
ATOM     25  O   UNL     1      -1.637  -2.157  -0.346  1.00  0.00    -0.207 OA
ATOM     26  O   UNL     1      -4.111  -2.538  -0.040  1.00  0.00    -0.207 OA
BRANCH  24  27
ATOM     27  C   UNL     1      -3.061  -0.396   0.989  1.00  0.00     0.082 A 
ATOM     28  C   UNL     1      -1.890   0.056   1.602  1.00  0.00     0.022 A 
ATOM     29  C   UNL     1      -4.310   0.055   1.433  1.00  0.00     0.022 A 
ATOM     30  C   UNL     1      -1.967   1.012   2.617  1.00  0.00     0.001 A 
ATOM     31  C   UNL     1      -4.381   1.006   2.451  1.00  0.00     0.001 A 
ATOM     32  C   UNL     1      -3.210   1.490   3.035  1.00  0.00     0.000 A 
ENDBRANCH  24  27
ENDBRANCH   2  24
TORSDOF 5
