REMARK  Name = *****
REMARK  7 active torsions:
REMARK  status: ('A' for Active; 'I' for Inactive)
REMARK    1  A    between atoms: N_1  and  C_2
REMARK    2  A    between atoms: N_8  and  C_31
REMARK    3  A    between atoms: C_9  and  C_30
REMARK    4  A    between atoms: C_10  and  N_13
REMARK    5  A    between atoms: C_14  and  C_16
REMARK    6  A    between atoms: N_17  and  S_21
REMARK    7  A    between atoms: S_21  and  C_24
REMARK                            x       y       z     vdW  Elec       q    Type
REMARK                         _______ _______ _______ _____ _____    ______ ____
ROOT
ATOM      1  N   UNL A   1      -0.434   2.579  -0.292  0.00  0.00    -0.278 N 
ATOM      2  C   UNL A   1       0.162   3.754  -0.716  0.00  0.00    +0.236 C 
ATOM      3  O   UNL A   1       1.017   3.766  -1.603  0.00  0.00    -0.274 OA
ATOM      4  H   UNL A   1      -1.306   2.627   0.218  0.00  0.00    +0.155 HD
ENDROOT
BRANCH   1   8
ATOM      5  N   UNL A   1       0.816  -0.724  -1.170  0.00  0.00    -0.216 N 
ATOM      6  N   UNL A   1      -0.290  -0.580  -2.063  0.00  0.00    -0.282 N 
ATOM      7  C   UNL A   1      -0.806   0.706  -1.833  0.00  0.00    +0.059 A 
ATOM      8  C   UNL A   1      -0.146   1.364  -0.865  0.00  0.00    +0.121 A 
ATOM      9  C   UNL A   1       0.904   0.421  -0.358  0.00  0.00    +0.293 A 
ATOM     10  O   UNL A   1       1.580   0.629   0.638  0.00  0.00    -0.264 OA
ATOM     11  C   UNL A   1      -1.909   1.272  -2.668  0.00  0.00    +0.067 C 
ATOM     12  C   UNL A   1      -0.047  -1.034  -3.442  0.00  0.00    +0.171 C 
BRANCH   5  13
ATOM     13  C   UNL A   1       1.375  -1.994  -0.878  0.00  0.00    +0.067 A 
ATOM     14  C   UNL A   1       0.669  -3.174  -1.162  0.00  0.00    +0.028 A 
ATOM     15  C   UNL A   1       1.246  -4.430  -0.957  0.00  0.00    +0.002 A 
ATOM     16  C   UNL A   1       2.542  -4.524  -0.461  0.00  0.00    +0.000 A 
ATOM     17  C   UNL A   1       3.251  -3.363  -0.155  0.00  0.00    +0.002 A 
ATOM     18  C   UNL A   1       2.666  -2.104  -0.349  0.00  0.00    +0.028 A 
ENDBRANCH   5  13
ENDBRANCH   1   8
BRANCH   2  19
ATOM     19  C   UNL A   1      -0.185   5.033   0.056  0.00  0.00    +0.166 C 
ATOM     20  N   UNL A   1      -0.572   6.317  -0.634  0.00  0.00    -0.165 NA
ATOM     21  C   UNL A   1      -1.016   7.230   0.474  0.00  0.00    +0.110 C 
ATOM     22  C   UNL A   1      -1.406   6.339   1.649  0.00  0.00    +0.019 C 
ATOM     23  C   UNL A   1      -1.242   4.913   1.154  0.00  0.00    +0.031 C 
BRANCH  20  24
ATOM     24  S   UNL A   1      -1.686   6.251  -1.930  0.00  0.00    +0.061 S 
ATOM     25  O   UNL A   1      -2.535   5.095  -1.702  0.00  0.00    -0.153 OA
ATOM     26  O   UNL A   1      -2.253   7.576  -2.092  0.00  0.00    -0.153 OA
BRANCH  24  27
ATOM     27  C   UNL A   1      -0.792   5.957  -3.425  0.00  0.00    +0.105 A 
ATOM     28  C   UNL A   1       0.597   5.969  -3.486  0.00  0.00    +0.028 A 
ATOM     29  C   UNL A   1       1.230   5.742  -4.710  0.00  0.00    +0.002 A 
ATOM     30  C   UNL A   1       0.478   5.555  -5.872  0.00  0.00    +0.000 A 
ATOM     31  C   UNL A   1      -0.914   5.592  -5.819  0.00  0.00    +0.002 A 
ATOM     32  C   UNL A   1      -1.551   5.793  -4.597  0.00  0.00    +0.028 A 
ENDBRANCH  24  27
ENDBRANCH  20  24
ENDBRANCH   2  19
TORSDOF 5
