REMARK  Name = *****
REMARK  7 active torsions:
REMARK  status: ('A' for Active; 'I' for Inactive)
REMARK    1  A    between atoms: C_2  and  C_4
REMARK    2  A    between atoms: C_7  and  N_13
REMARK    3  A    between atoms: C_8  and  N_10
REMARK    4  A    between atoms: N_13  and  C_14
REMARK    5  A    between atoms: C_14  and  C_15
REMARK    6  A    between atoms: C_15  and  C_16
REMARK    7  A    between atoms: C_16  and  N_17
REMARK                            x       y       z     vdW  Elec       q    Type
REMARK                         _______ _______ _______ _____ _____    ______ ____
ROOT
ATOM      1  C   UNL A   1       2.880  -0.900   0.844  0.00  0.00    +0.039 A 
ATOM      2  C   UNL A   1       2.546  -2.250   0.904  0.00  0.00    +0.015 A 
ATOM      3  C   UNL A   1       3.331  -3.145   1.644  0.00  0.00    +0.026 A 
ATOM      4  C   UNL A   1       4.477  -2.723   2.336  0.00  0.00    +0.054 A 
ATOM      5  C   UNL A   1       4.805  -1.346   2.249  0.00  0.00    +0.097 A 
ATOM      6  C   UNL A   1       4.008  -0.439   1.526  0.00  0.00    +0.043 A 
ENDROOT
BRANCH   1   8
ATOM      7  O   UNL A   1       0.821  -0.250  -0.120  0.00  0.00    -0.270 OA
ATOM      8  C   UNL A   1       1.999   0.017   0.077  0.00  0.00    +0.242 C 
ATOM      9  N   UNL A   1       2.563   1.153  -0.427  0.00  0.00    -0.325 N 
ATOM     10  H   UNL A   1       1.972   1.722  -1.021  0.00  0.00    +0.145 HD
ATOM     11  H   UNL A   1       3.561   1.302  -0.483  0.00  0.00    +0.145 HD
ENDBRANCH   1   8
BRANCH   5  12
ATOM     12  N   UNL A   1       6.012  -0.803   2.903  0.00  0.00    -0.185 N 
ATOM     13  O   UNL A   1       6.886  -1.597   3.286  0.00  0.00    -0.172 OA
ATOM     14  O   UNL A   1       6.112   0.431   2.991  0.00  0.00    -0.777 OA
ENDBRANCH   5  12
BRANCH   4  15
ATOM     15  N   UNL A   1       5.160  -3.587   3.183  0.00  0.00    -0.342 N 
ATOM     16  H   UNL A   1       6.114  -3.277   3.386  0.00  0.00    +0.146 HD
BRANCH  15  17
ATOM     17  C   UNL A   1       4.917  -5.018   3.289  0.00  0.00    +0.103 C 
BRANCH  17  18
ATOM     18  C   UNL A   1       5.903  -5.638   4.288  0.00  0.00    +0.034 C 
BRANCH  18  19
ATOM     19  C   UNL A   1       7.339  -5.617   3.744  0.00  0.00    +0.086 C 
BRANCH  19  20
ATOM     20  N   UNL A   1       8.360  -6.179   4.649  0.00  0.00    -0.298 NA
ATOM     21  C   UNL A   1       8.432  -5.505   5.966  0.00  0.00    +0.112 C 
ATOM     22  C   UNL A   1       8.969  -4.068   5.900  0.00  0.00    +0.175 C 
ATOM     23  O   UNL A   1      10.279  -4.041   5.317  0.00  0.00    -0.377 OA
ATOM     24  C   UNL A   1      10.268  -4.622   4.008  0.00  0.00    +0.175 C 
ATOM     25  C   UNL A   1       9.704  -6.059   4.024  0.00  0.00    +0.112 C 
ENDBRANCH  19  20
ENDBRANCH  18  19
ENDBRANCH  17  18
ENDBRANCH  15  17
ENDBRANCH   4  15
TORSDOF 7
