REMARK SMILES C[C@H](N)[C@H](O)c1ccc(O)c(O)c1
REMARK SMILES IDX 4 1 2 2 1 3 3 4 5 7 6 9 7 10 13 11 8 12 11 13 9 14 12 15
REMARK SMILES IDX 10 17
REMARK H PARENT 3 5 3 6 5 8 12 16 10 18
REMARK Flexibility Score: inf
ROOT
ATOM      1  C   UNL     1      -1.021  -0.601   0.832  1.00  0.00     0.161 C 
ENDROOT
BRANCH   1   2
ATOM      2  C   UNL     1      -2.138  -0.293  -0.214  1.00  0.00     0.081 C 
ATOM      3  C   UNL     1      -2.106   1.155  -0.712  1.00  0.00     0.027 C 
BRANCH   2   4
ATOM      4  N   UNL     1      -3.487  -0.546   0.332  1.00  0.00    -0.325 NA
ATOM      5  H   UNL     1      -3.521  -1.445   0.808  1.00  0.00     0.119 HD
ATOM      6  H   UNL     1      -3.745   0.178   0.999  1.00  0.00     0.119 HD
ENDBRANCH   2   4
ENDBRANCH   1   2
BRANCH   1   7
ATOM      7  O   UNL     1      -1.186   0.225   1.990  1.00  0.00    -0.387 OA
ATOM      8  H   UNL     1      -2.062   0.012   2.350  1.00  0.00     0.211 HD
ENDBRANCH   1   7
BRANCH   1   9
ATOM      9  C   UNL     1       0.384  -0.467   0.274  1.00  0.00    -0.014 A 
ATOM     10  C   UNL     1       0.874  -1.445  -0.614  1.00  0.00     0.010 A 
ATOM     11  C   UNL     1       1.214   0.616   0.613  1.00  0.00     0.056 A 
ATOM     12  C   UNL     1       2.158  -1.346  -1.155  1.00  0.00     0.050 A 
ATOM     13  C   UNL     1       2.492   0.706   0.072  1.00  0.00     0.157 A 
ATOM     14  C   UNL     1       2.956  -0.269  -0.806  1.00  0.00     0.157 A 
BRANCH  13  15
ATOM     15  O   UNL     1       3.333   1.742   0.376  1.00  0.00    -0.504 OA
ATOM     16  H   UNL     1       2.874   2.317   1.013  1.00  0.00     0.293 HD
ENDBRANCH  13  15
BRANCH  14  17
ATOM     17  O   UNL     1       4.212  -0.170  -1.333  1.00  0.00    -0.504 OA
ATOM     18  H   UNL     1       4.572   0.653  -0.946  1.00  0.00     0.293 HD
ENDBRANCH  14  17
ENDBRANCH   1   9
TORSDOF 6
