REMARK SMILES O[C@H](c1cc(C(F)(F)F)nc2c(C(F)(F)F)cccc12)[C@H]1CCCCN1
REMARK SMILES IDX 3 1 4 2 5 3 10 4 11 5 12 6 17 7 18 8 19 9 20 10 2 11 1 12
REMARK SMILES IDX 21 14 22 15 26 16 23 17 25 18 24 20 6 21 7 22 8 23 9 24
REMARK SMILES IDX 13 25 14 26 15 27 16 28
REMARK H PARENT 1 13 26 19
REMARK Flexibility Score: inf
ROOT
ATOM      1  C   UNL     1      -0.455   0.095   0.325  1.00  0.00    -0.006 A 
ATOM      2  C   UNL     1      -0.889   1.338  -0.155  1.00  0.00     0.040 A 
ATOM      3  C   UNL     1      -2.233   1.542  -0.451  1.00  0.00     0.145 A 
ATOM      4  N   UNL     1      -3.155   0.561  -0.278  1.00  0.00    -0.243 NA
ATOM      5  C   UNL     1      -2.787  -0.636   0.199  1.00  0.00     0.083 A 
ATOM      6  C   UNL     1      -3.765  -1.614   0.380  1.00  0.00     0.082 A 
ATOM      7  C   UNL     1      -3.433  -2.883   0.886  1.00  0.00     0.015 A 
ATOM      8  C   UNL     1      -2.122  -3.180   1.216  1.00  0.00     0.001 A 
ATOM      9  C   UNL     1      -1.138  -2.212   1.038  1.00  0.00     0.011 A 
ATOM     10  C   UNL     1      -1.437  -0.926   0.525  1.00  0.00     0.007 A 
ENDROOT
BRANCH   1  11
ATOM     11  C   UNL     1       1.020  -0.165   0.656  1.00  0.00     0.162 C 
BRANCH  11  12
ATOM     12  O   UNL     1       1.485  -1.263  -0.133  1.00  0.00    -0.387 OA
ATOM     13  H   UNL     1       1.087  -1.171  -1.015  1.00  0.00     0.211 HD
ENDBRANCH  11  12
BRANCH  11  14
ATOM     14  C   UNL     1       2.036   1.036   0.551  1.00  0.00     0.087 C 
ATOM     15  C   UNL     1       3.303   0.800   1.403  1.00  0.00     0.022 C 
ATOM     16  N   UNL     1       2.389   1.480  -0.818  1.00  0.00    -0.311 NA
ATOM     17  C   UNL     1       4.348  -0.071   0.720  1.00  0.00     0.003 C 
ATOM     18  C   UNL     1       3.420   0.682  -1.485  1.00  0.00     0.081 C 
ATOM     19  H   UNL     1       1.566   1.502  -1.415  1.00  0.00     0.123 HD
ATOM     20  C   UNL     1       4.679   0.504  -0.647  1.00  0.00     0.015 C 
ENDBRANCH  11  14
ENDBRANCH   1  11
BRANCH   3  21
ATOM     21  C   UNL     1      -2.673   2.907  -0.971  1.00  0.00     0.433 C 
ATOM     22  F   UNL     1      -3.984   2.980  -1.331  1.00  0.00    -0.165 F 
ATOM     23  F   UNL     1      -1.962   3.291  -2.073  1.00  0.00    -0.165 F 
ATOM     24  F   UNL     1      -2.479   3.897  -0.052  1.00  0.00    -0.165 F 
ENDBRANCH   3  21
BRANCH   6  25
ATOM     25  C   UNL     1      -5.195  -1.300   0.027  1.00  0.00     0.418 C 
ATOM     26  F   UNL     1      -5.723  -0.273   0.750  1.00  0.00    -0.166 F 
ATOM     27  F   UNL     1      -5.377  -0.989  -1.287  1.00  0.00    -0.166 F 
ATOM     28  F   UNL     1      -6.035  -2.356   0.256  1.00  0.00    -0.166 F 
ENDBRANCH   6  25
TORSDOF 5
