REMARK SMILES C[C@@H](O)[C@H](N)C(=O)O
REMARK SMILES IDX 4 1 2 2 1 3 3 4 5 6 6 9 7 10 8 11
REMARK H PARENT 3 5 5 7 5 8 8 12
REMARK Flexibility Score: inf
ROOT
ATOM      1  C   UNL     1       0.408  -0.098   0.707  1.00  0.00     0.190 C 
ENDROOT
BRANCH   1   2
ATOM      2  C   UNL     1      -0.937  -0.578   0.122  1.00  0.00     0.139 C 
ATOM      3  C   UNL     1      -1.440   0.218  -1.080  1.00  0.00     0.040 C 
BRANCH   2   4
ATOM      4  O   UNL     1      -0.865  -1.971  -0.193  1.00  0.00    -0.391 OA
ATOM      5  H   UNL     1      -1.649  -2.198  -0.723  1.00  0.00     0.211 HD
ENDBRANCH   2   4
ENDBRANCH   1   2
BRANCH   1   6
ATOM      6  N   UNL     1       0.253   1.213   1.395  1.00  0.00    -0.316 NA
ATOM      7  H   UNL     1       1.197   1.542   1.621  1.00  0.00     0.119 HD
ATOM      8  H   UNL     1      -0.212   1.058   2.288  1.00  0.00     0.119 HD
ENDBRANCH   1   6
BRANCH   1   9
ATOM      9  C   UNL     1       1.533  -0.002  -0.339  1.00  0.00     0.323 C 
ATOM     10  O   UNL     1       1.602  -0.522  -1.439  1.00  0.00    -0.250 OA
BRANCH   9  11
ATOM     11  O   UNL     1       2.582   0.736   0.112  1.00  0.00    -0.480 OA
ATOM     12  H   UNL     1       3.211   0.704  -0.640  1.00  0.00     0.296 HD
ENDBRANCH   9  11
ENDBRANCH   1   9
TORSDOF 5
