REMARK SMILES CN[C@@H](C)[C@H](O)c1ccccc1
REMARK SMILES IDX 3 1 4 2 2 3 1 4 5 6 6 7 7 9 8 10 12 11 9 12 11 13 10 14
REMARK H PARENT 2 5 6 8
REMARK Flexibility Score: inf
ROOT
ATOM      1  C   UNL     1      -1.314  -0.288   0.409  1.00  0.00     0.083 C 
ATOM      2  C   UNL     1      -0.802  -1.155   1.570  1.00  0.00     0.027 C 
ENDROOT
BRANCH   1   3
ATOM      3  N   UNL     1      -2.623  -0.863  -0.008  1.00  0.00    -0.314 NA
ATOM      4  C   UNL     1      -3.400   0.065  -0.824  1.00  0.00     0.101 C 
ATOM      5  H   UNL     1      -3.167  -1.077   0.830  1.00  0.00     0.122 HD
ENDBRANCH   1   3
BRANCH   1   6
ATOM      6  C   UNL     1      -0.308  -0.270  -0.788  1.00  0.00     0.161 C 
BRANCH   6   7
ATOM      7  O   UNL     1      -0.249  -1.582  -1.362  1.00  0.00    -0.387 OA
ATOM      8  H   UNL     1      -1.167  -1.913  -1.284  1.00  0.00     0.211 HD
ENDBRANCH   6   7
BRANCH   6   9
ATOM      9  C   UNL     1       1.071   0.248  -0.428  1.00  0.00    -0.018 A 
ATOM     10  C   UNL     1       1.253   1.615  -0.158  1.00  0.00     0.006 A 
ATOM     11  C   UNL     1       2.183  -0.603  -0.346  1.00  0.00     0.006 A 
ATOM     12  C   UNL     1       2.510   2.113   0.189  1.00  0.00     0.000 A 
ATOM     13  C   UNL     1       3.441  -0.104   0.001  1.00  0.00     0.000 A 
ATOM     14  C   UNL     1       3.603   1.253   0.269  1.00  0.00     0.000 A 
ENDBRANCH   6   9
ENDBRANCH   1   6
TORSDOF 4
