REMARK SMILES COc1ccc(OC)c([C@@H](O)[C@H](C)N)c1
REMARK SMILES IDX 10 1 9 2 3 3 4 4 15 5 5 6 6 7 2 8 1 9 7 10 8 11 11 12 12 14
REMARK SMILES IDX 13 15 14 16
REMARK H PARENT 11 13 14 17 14 18
REMARK Flexibility Score: inf
ROOT
ATOM      1  C   UNL     1      -1.017  -0.453   1.166  1.00  0.00     0.165 C 
ENDROOT
BRANCH   1   2
ATOM      2  C   UNL     1       0.178   0.160   0.442  1.00  0.00     0.028 A 
ATOM      3  C   UNL     1       2.544  -0.062  -0.142  1.00  0.00     0.119 A 
ATOM      4  C   UNL     1       2.461   1.122  -0.869  1.00  0.00     0.050 A 
ATOM      5  C   UNL     1       1.406  -0.538   0.507  1.00  0.00     0.056 A 
ATOM      6  C   UNL     1       1.257   1.826  -0.953  1.00  0.00     0.050 A 
ATOM      7  C   UNL     1       0.112   1.351  -0.307  1.00  0.00     0.124 A 
BRANCH   3   8
ATOM      8  O   UNL     1       3.778  -0.650  -0.147  1.00  0.00    -0.497 OA
ATOM      9  C   UNL     1       3.922  -1.857   0.591  1.00  0.00     0.278 C 
ENDBRANCH   3   8
BRANCH   7  10
ATOM     10  O   UNL     1      -1.108   1.978  -0.342  1.00  0.00    -0.496 OA
ATOM     11  C   UNL     1      -1.243   3.104  -1.203  1.00  0.00     0.278 C 
ENDBRANCH   7  10
ENDBRANCH   1   2
BRANCH   1  12
ATOM     12  O   UNL     1      -1.944   0.507   1.688  1.00  0.00    -0.387 OA
ATOM     13  H   UNL     1      -1.894   1.284   1.101  1.00  0.00     0.211 HD
ENDBRANCH   1  12
BRANCH   1  14
ATOM     14  C   UNL     1      -1.781  -1.516   0.314  1.00  0.00     0.081 C 
ATOM     15  C   UNL     1      -2.460  -0.933  -0.927  1.00  0.00     0.027 C 
BRANCH  14  16
ATOM     16  N   UNL     1      -2.839  -2.168   1.119  1.00  0.00    -0.325 NA
ATOM     17  H   UNL     1      -3.431  -1.415   1.487  1.00  0.00     0.119 HD
ATOM     18  H   UNL     1      -2.416  -2.575   1.952  1.00  0.00     0.119 HD
ENDBRANCH  14  16
ENDBRANCH   1  14
TORSDOF 6
