
     RDKit          3D

 42 44  0  0  0  0  0  0  0  0999 V2000
    1.4851   -1.2630   -0.1329 O   0  0  0  0  0  0  0  0  0  0  0  0
    1.0203   -0.1647    0.6563 C   0  0  2  0  0  0  0  0  0  0  0  0
   -0.4550    0.0945    0.3251 C   0  0  0  0  0  0  0  0  0  0  0  0
   -0.8890    1.3379   -0.1549 C   0  0  0  0  0  0  0  0  0  0  0  0
   -2.2326    1.5423   -0.4511 C   0  0  0  0  0  0  0  0  0  0  0  0
   -2.6730    2.9073   -0.9709 C   0  0  0  0  0  0  0  0  0  0  0  0
   -3.9838    2.9801   -1.3309 F   0  0  0  0  0  0  0  0  0  0  0  0
   -1.9623    3.2905   -2.0728 F   0  0  0  0  0  0  0  0  0  0  0  0
   -2.4791    3.8975   -0.0519 F   0  0  0  0  0  0  0  0  0  0  0  0
   -3.1547    0.5615   -0.2784 N   0  0  0  0  0  0  0  0  0  0  0  0
   -2.7865   -0.6359    0.1993 C   0  0  0  0  0  0  0  0  0  0  0  0
   -3.7651   -1.6139    0.3797 C   0  0  0  0  0  0  0  0  0  0  0  0
   -5.1954   -1.2995    0.0269 C   0  0  0  0  0  0  0  0  0  0  0  0
   -5.7230   -0.2726    0.7501 F   0  0  0  0  0  0  0  0  0  0  0  0
   -5.3771   -0.9894   -1.2873 F   0  0  0  0  0  0  0  0  0  0  0  0
   -6.0349   -2.3563    0.2559 F   0  0  0  0  0  0  0  0  0  0  0  0
   -3.4329   -2.8826    0.8862 C   0  0  0  0  0  0  0  0  0  0  0  0
   -2.1219   -3.1801    1.2160 C   0  0  0  0  0  0  0  0  0  0  0  0
   -1.1382   -2.2123    1.0382 C   0  0  0  0  0  0  0  0  0  0  0  0
   -1.4371   -0.9261    0.5254 C   0  0  0  0  0  0  0  0  0  0  0  0
    2.0361    1.0358    0.5507 C   0  0  1  0  0  0  0  0  0  0  0  0
    3.3032    0.8000    1.4027 C   0  0  0  0  0  0  0  0  0  0  0  0
    4.3477   -0.0710    0.7200 C   0  0  0  0  0  0  0  0  0  0  0  0
    4.6791    0.5042   -0.6475 C   0  0  0  0  0  0  0  0  0  0  0  0
    3.4198    0.6824   -1.4850 C   0  0  0  0  0  0  0  0  0  0  0  0
    2.3892    1.4797   -0.8182 N   0  0  0  0  0  0  0  0  0  0  0  0
    1.0865   -1.1710   -1.0150 H   0  0  0  0  0  0  0  0  0  0  0  0
    1.0400   -0.4931    1.7035 H   0  0  0  0  0  0  0  0  0  0  0  0
   -0.2077    2.1718   -0.2991 H   0  0  0  0  0  0  0  0  0  0  0  0
   -4.2028   -3.6408    1.0248 H   0  0  0  0  0  0  0  0  0  0  0  0
   -1.8609   -4.1600    1.6090 H   0  0  0  0  0  0  0  0  0  0  0  0
   -0.1197   -2.4862    1.3082 H   0  0  0  0  0  0  0  0  0  0  0  0
    1.5445    1.8923    1.0307 H   0  0  0  0  0  0  0  0  0  0  0  0
    3.7599    1.7754    1.6212 H   0  0  0  0  0  0  0  0  0  0  0  0
    3.0390    0.3665    2.3744 H   0  0  0  0  0  0  0  0  0  0  0  0
    3.9830   -1.0991    0.6201 H   0  0  0  0  0  0  0  0  0  0  0  0
    5.2543   -0.1140    1.3339 H   0  0  0  0  0  0  0  0  0  0  0  0
    5.1820    1.4721   -0.5274 H   0  0  0  0  0  0  0  0  0  0  0  0
    5.3810   -0.1567   -1.1683 H   0  0  0  0  0  0  0  0  0  0  0  0
    3.0254   -0.2948   -1.7796 H   0  0  0  0  0  0  0  0  0  0  0  0
    3.6907    1.1896   -2.4182 H   0  0  0  0  0  0  0  0  0  0  0  0
    1.5660    1.5016   -1.4153 H   0  0  0  0  0  0  0  0  0  0  0  0
  1  2  1  0
  2  3  1  0
  3  4  2  0
  4  5  1  0
  5  6  1  0
  6  7  1  0
  6  8  1  0
  6  9  1  0
  5 10  2  0
 10 11  1  0
 11 12  2  0
 12 13  1  0
 13 14  1  0
 13 15  1  0
 13 16  1  0
 12 17  1  0
 17 18  2  0
 18 19  1  0
 19 20  2  0
  2 21  1  0
 21 22  1  0
 22 23  1  0
 23 24  1  0
 24 25  1  0
 25 26  1  0
 20  3  1  0
 26 21  1  0
 20 11  1  0
  1 27  1  0
  2 28  1  1
  4 29  1  0
 17 30  1  0
 18 31  1  0
 19 32  1  0
 21 33  1  1
 22 34  1  0
 22 35  1  0
 23 36  1  0
 23 37  1  0
 24 38  1  0
 24 39  1  0
 25 40  1  0
 25 41  1  0
 26 42  1  0
M  END
$$$$
