
     RDKit          3D

 42 45  0  0  0  0  0  0  0  0999 V2000
   -4.4517   -2.2034   -1.0146 C   0  0  0  0  0  0  0  0  0  0  0  0
   -3.4958   -1.1539   -1.0563 O   0  0  0  0  0  0  0  0  0  0  0  0
   -2.3283   -1.3475   -0.3749 C   0  0  0  0  0  0  0  0  0  0  0  0
   -1.9677   -2.5016    0.3204 C   0  0  0  0  0  0  0  0  0  0  0  0
   -0.7032   -2.6027    0.9262 C   0  0  0  0  0  0  0  0  0  0  0  0
    0.2156   -1.5406    0.8803 C   0  0  0  0  0  0  0  0  0  0  0  0
   -0.1948   -0.3579    0.2710 C   0  0  0  0  0  0  0  0  0  0  0  0
   -1.4139   -0.3003   -0.3921 C   0  0  0  0  0  0  0  0  0  0  0  0
   -1.5920    0.8417   -1.1300 O   0  0  0  0  0  0  0  0  0  0  0  0
   -0.4725    1.7008   -0.7977 C   0  0  1  0  0  0  0  0  0  0  0  0
   -1.0856    2.9382   -0.1322 C   0  0  0  0  0  0  0  0  0  0  0  0
   -0.0491    3.7841    0.5847 C   0  0  1  0  0  0  0  0  0  0  0  0
   -0.7219    4.8200    1.2859 O   0  0  0  0  0  0  0  0  0  0  0  0
    0.6962    2.9431    1.5671 C   0  0  0  0  0  0  0  0  0  0  0  0
    0.9338    1.6393    1.3534 C   0  0  0  0  0  0  0  0  0  0  0  0
    0.5742    0.9093    0.0676 C   0  0  1  0  0  0  0  0  0  0  0  0
    1.8472    0.6047   -0.7589 C   0  0  0  0  0  0  0  0  0  0  0  0
    2.9506   -0.1901   -0.0320 C   0  0  0  0  0  0  0  0  0  0  0  0
    2.6774   -1.5699    0.3752 N   0  0  0  0  0  0  0  0  0  0  0  0
    2.5373   -2.4868   -0.7516 C   0  0  0  0  0  0  0  0  0  0  0  0
    1.6243   -1.7275    1.3868 C   0  0  0  0  0  0  0  0  0  0  0  0
   -4.0615   -3.1114   -1.4860 H   0  0  0  0  0  0  0  0  0  0  0  0
   -5.3271   -1.8819   -1.5871 H   0  0  0  0  0  0  0  0  0  0  0  0
   -4.7793   -2.4001    0.0116 H   0  0  0  0  0  0  0  0  0  0  0  0
   -2.6279   -3.3604    0.3802 H   0  0  0  0  0  0  0  0  0  0  0  0
   -0.4299   -3.5403    1.4074 H   0  0  0  0  0  0  0  0  0  0  0  0
   -0.0183    2.0144   -1.7470 H   0  0  0  0  0  0  0  0  0  0  0  0
   -1.8790    2.6391    0.5690 H   0  0  0  0  0  0  0  0  0  0  0  0
   -1.6134    3.5410   -0.8832 H   0  0  0  0  0  0  0  0  0  0  0  0
    0.6447    4.2477   -0.1252 H   0  0  0  0  0  0  0  0  0  0  0  0
   -0.0436    5.3892    1.6854 H   0  0  0  0  0  0  0  0  0  0  0  0
    1.0274    3.3996    2.4956 H   0  0  0  0  0  0  0  0  0  0  0  0
    1.4516    1.0899    2.1339 H   0  0  0  0  0  0  0  0  0  0  0  0
    1.5827    0.0834   -1.6890 H   0  0  0  0  0  0  0  0  0  0  0  0
    2.2927    1.5589   -1.0747 H   0  0  0  0  0  0  0  0  0  0  0  0
    3.8303   -0.2023   -0.6902 H   0  0  0  0  0  0  0  0  0  0  0  0
    3.2917    0.3707    0.8468 H   0  0  0  0  0  0  0  0  0  0  0  0
    2.4511   -3.5208   -0.3990 H   0  0  0  0  0  0  0  0  0  0  0  0
    1.6695   -2.2670   -1.3817 H   0  0  0  0  0  0  0  0  0  0  0  0
    3.4305   -2.4516   -1.3855 H   0  0  0  0  0  0  0  0  0  0  0  0
    1.7230   -2.7345    1.8143 H   0  0  0  0  0  0  0  0  0  0  0  0
    1.8047   -1.0624    2.2384 H   0  0  0  0  0  0  0  0  0  0  0  0
  1  2  1  0
  2  3  1  0
  3  4  2  0
  4  5  1  0
  5  6  2  0
  6  7  1  0
  7  8  2  0
  8  9  1  0
  9 10  1  0
 10 11  1  0
 11 12  1  0
 12 13  1  0
 12 14  1  0
 14 15  2  0
 15 16  1  0
 16 17  1  6
 17 18  1  0
 18 19  1  0
 19 20  1  0
 19 21  1  0
  8  3  1  0
 16 10  1  0
 21  6  1  0
 16  7  1  0
  1 22  1  0
  1 23  1  0
  1 24  1  0
  4 25  1  0
  5 26  1  0
 10 27  1  6
 11 28  1  0
 11 29  1  0
 12 30  1  6
 13 31  1  0
 14 32  1  0
 15 33  1  0
 17 34  1  0
 17 35  1  0
 18 36  1  0
 18 37  1  0
 20 38  1  0
 20 39  1  0
 20 40  1  0
 21 41  1  0
 21 42  1  0
M  END
$$$$
