
     RDKit          3D

 32 32  0  0  0  0  0  0  0  0999 V2000
    1.1661    2.6613    1.8541 O   0  0  0  0  0  0  0  0  0  0  0  0
    1.4634    2.3135    0.7102 C   0  0  0  0  0  0  0  0  0  0  0  0
    1.4125    0.9915    0.3202 N   0  0  0  0  0  0  0  0  0  0  0  0
    1.0596   -0.0964    1.2410 C   0  0  2  0  0  0  0  0  0  0  0  0
    2.2630   -0.4352    2.1453 C   0  0  0  0  0  0  0  0  0  0  0  0
    3.3171   -1.0267    1.3786 O   0  0  0  0  0  0  0  0  0  0  0  0
    0.5983   -1.3493    0.4441 C   0  0  2  0  0  0  0  0  0  0  0  0
    1.5769   -1.6976   -0.5455 O   0  0  0  0  0  0  0  0  0  0  0  0
   -0.7530   -1.1393   -0.2210 C   0  0  0  0  0  0  0  0  0  0  0  0
   -1.9299   -1.3186    0.5267 C   0  0  0  0  0  0  0  0  0  0  0  0
   -3.1844   -1.1070   -0.0522 C   0  0  0  0  0  0  0  0  0  0  0  0
   -3.2687   -0.7094   -1.3920 C   0  0  0  0  0  0  0  0  0  0  0  0
   -4.5843   -0.4856   -2.0031 N   0  0  0  0  0  4  0  0  0  0  0  0
   -5.5859   -0.6499   -1.2911 O   0  0  0  0  0  0  0  0  0  0  0  0
   -4.6188   -0.1452   -3.1943 O   0  0  0  0  0  1  0  0  0  0  0  0
   -2.1092   -0.5239   -2.1521 C   0  0  0  0  0  0  0  0  0  0  0  0
   -0.8601   -0.7391   -1.5638 C   0  0  0  0  0  0  0  0  0  0  0  0
    1.9324    3.3124   -0.3470 C   0  0  0  0  0  0  0  0  0  0  0  0
    0.9473    3.1458   -1.8164 Cl  0  0  0  0  0  0  0  0  0  0  0  0
    3.6457    3.0055   -0.7039 Cl  0  0  0  0  0  0  0  0  0  0  0  0
    1.8321    0.7190   -0.5652 H   0  0  0  0  0  0  0  0  0  0  0  0
    0.2482    0.2630    1.8861 H   0  0  0  0  0  0  0  0  0  0  0  0
    2.6554    0.4620    2.6349 H   0  0  0  0  0  0  0  0  0  0  0  0
    1.9676   -1.1532    2.9172 H   0  0  0  0  0  0  0  0  0  0  0  0
    4.1043   -1.0407    1.9555 H   0  0  0  0  0  0  0  0  0  0  0  0
    0.5148   -2.2113    1.1178 H   0  0  0  0  0  0  0  0  0  0  0  0
    2.4398   -1.6860   -0.0763 H   0  0  0  0  0  0  0  0  0  0  0  0
   -1.8780   -1.6262    1.5697 H   0  0  0  0  0  0  0  0  0  0  0  0
   -4.0782   -1.2548    0.5505 H   0  0  0  0  0  0  0  0  0  0  0  0
   -2.1562   -0.2158   -3.1945 H   0  0  0  0  0  0  0  0  0  0  0  0
    0.0370   -0.5956   -2.1646 H   0  0  0  0  0  0  0  0  0  0  0  0
    1.8253    4.3326    0.0314 H   0  0  0  0  0  0  0  0  0  0  0  0
  1  2  2  0
  2  3  1  0
  3  4  1  0
  4  5  1  0
  5  6  1  0
  4  7  1  0
  7  8  1  0
  7  9  1  0
  9 10  2  0
 10 11  1  0
 11 12  2  0
 12 13  1  0
 13 14  2  0
 13 15  1  0
 12 16  1  0
 16 17  2  0
  2 18  1  0
 18 19  1  0
 18 20  1  0
 17  9  1  0
  3 21  1  0
  4 22  1  1
  5 23  1  0
  5 24  1  0
  6 25  1  0
  7 26  1  1
  8 27  1  0
 10 28  1  0
 11 29  1  0
 16 30  1  0
 17 31  1  0
 18 32  1  0
M  CHG  2  13   1  15  -1
M  END
$$$$
