
     RDKit          3D

 17 16  0  0  0  0  0  0  0  0999 V2000
   -1.4397    0.2182   -1.0796 C   0  0  0  0  0  0  0  0  0  0  0  0
   -0.9367   -0.5777    0.1216 C   0  0  1  0  0  0  0  0  0  0  0  0
   -0.8650   -1.9706   -0.1929 O   0  0  0  0  0  0  0  0  0  0  0  0
    0.4084   -0.0981    0.7065 C   0  0  2  0  0  0  0  0  0  0  0  0
    0.2533    1.2127    1.3953 N   0  0  0  0  0  0  0  0  0  0  0  0
    1.5329   -0.0017   -0.3389 C   0  0  0  0  0  0  0  0  0  0  0  0
    1.6022   -0.5224   -1.4391 O   0  0  0  0  0  0  0  0  0  0  0  0
    2.5823    0.7362    0.1115 O   0  0  0  0  0  0  0  0  0  0  0  0
   -2.4517   -0.1075   -1.3461 H   0  0  0  0  0  0  0  0  0  0  0  0
   -0.8253    0.0462   -1.9681 H   0  0  0  0  0  0  0  0  0  0  0  0
   -1.4730    1.2913   -0.8708 H   0  0  0  0  0  0  0  0  0  0  0  0
   -1.6941   -0.4995    0.9121 H   0  0  0  0  0  0  0  0  0  0  0  0
   -1.6485   -2.1981   -0.7226 H   0  0  0  0  0  0  0  0  0  0  0  0
    0.7593   -0.8337    1.4419 H   0  0  0  0  0  0  0  0  0  0  0  0
    1.1969    1.5424    1.6210 H   0  0  0  0  0  0  0  0  0  0  0  0
   -0.2123    1.0578    2.2883 H   0  0  0  0  0  0  0  0  0  0  0  0
    3.2111    0.7043   -0.6400 H   0  0  0  0  0  0  0  0  0  0  0  0
  1  2  1  0
  2  3  1  0
  2  4  1  0
  4  5  1  0
  4  6  1  0
  6  7  2  0
  6  8  1  0
  1  9  1  0
  1 10  1  0
  1 11  1  0
  2 12  1  1
  3 13  1  0
  4 14  1  1
  5 15  1  0
  5 16  1  0
  8 17  1  0
M  END
$$$$
