
     RDKit          3D

 32 32  0  0  0  0  0  0  0  0999 V2000
    3.0591   -0.7233    1.8753 O   0  0  0  0  0  0  0  0  0  0  0  0
    1.9431   -0.2473    2.0806 C   0  0  0  0  0  0  0  0  0  0  0  0
    0.8346   -0.6244    1.3389 N   0  0  0  0  0  0  0  0  0  0  0  0
    0.9540   -1.4490    0.1274 C   0  0  1  0  0  0  0  0  0  0  0  0
    1.3335   -2.9058    0.4837 C   0  0  0  0  0  0  0  0  0  0  0  0
    1.3585   -3.7345   -0.6792 O   0  0  0  0  0  0  0  0  0  0  0  0
   -0.3422   -1.4252   -0.7460 C   0  0  2  0  0  0  0  0  0  0  0  0
   -0.1225   -2.0110   -2.0303 O   0  0  0  0  0  0  0  0  0  0  0  0
   -0.8629   -0.0181   -0.9911 C   0  0  0  0  0  0  0  0  0  0  0  0
   -0.1228    0.8998   -1.7562 C   0  0  0  0  0  0  0  0  0  0  0  0
   -0.5847    2.2030   -1.9540 C   0  0  0  0  0  0  0  0  0  0  0  0
   -1.8013    2.5955   -1.3849 C   0  0  0  0  0  0  0  0  0  0  0  0
   -2.2919    3.9642   -1.5872 N   0  0  0  0  0  4  0  0  0  0  0  0
   -1.5904    4.7367   -2.2560 O   0  0  0  0  0  0  0  0  0  0  0  0
   -3.3779    4.2691   -1.0730 O   0  0  0  0  0  1  0  0  0  0  0  0
   -2.5563    1.6925   -0.6260 C   0  0  0  0  0  0  0  0  0  0  0  0
   -2.0864    0.3904   -0.4345 C   0  0  0  0  0  0  0  0  0  0  0  0
    1.6856    0.7642    3.2000 C   0  0  0  0  0  0  0  0  0  0  0  0
    0.8234   -0.0542    4.5183 Cl  0  0  0  0  0  0  0  0  0  0  0  0
    0.7166    2.1192    2.5706 Cl  0  0  0  0  0  0  0  0  0  0  0  0
    0.0258   -0.0134    1.4176 H   0  0  0  0  0  0  0  0  0  0  0  0
    1.7770   -1.0377   -0.4731 H   0  0  0  0  0  0  0  0  0  0  0  0
    0.6070   -3.3297    1.1857 H   0  0  0  0  0  0  0  0  0  0  0  0
    2.3209   -2.9511    0.9526 H   0  0  0  0  0  0  0  0  0  0  0  0
    1.7726   -4.5761   -0.4087 H   0  0  0  0  0  0  0  0  0  0  0  0
   -1.1225   -2.0167   -0.2511 H   0  0  0  0  0  0  0  0  0  0  0  0
    0.3859   -2.8355   -1.8688 H   0  0  0  0  0  0  0  0  0  0  0  0
    0.8164    0.5926   -2.2148 H   0  0  0  0  0  0  0  0  0  0  0  0
    0.0086    2.8895   -2.5546 H   0  0  0  0  0  0  0  0  0  0  0  0
   -3.5077    1.9832   -0.1849 H   0  0  0  0  0  0  0  0  0  0  0  0
   -2.6873   -0.3054    0.1489 H   0  0  0  0  0  0  0  0  0  0  0  0
    2.6339    1.1585    3.5749 H   0  0  0  0  0  0  0  0  0  0  0  0
  1  2  2  0
  2  3  1  0
  3  4  1  0
  4  5  1  0
  5  6  1  0
  4  7  1  0
  7  8  1  0
  7  9  1  0
  9 10  2  0
 10 11  1  0
 11 12  2  0
 12 13  1  0
 13 14  2  0
 13 15  1  0
 12 16  1  0
 16 17  2  0
  2 18  1  0
 18 19  1  0
 18 20  1  0
 17  9  1  0
  3 21  1  0
  4 22  1  6
  5 23  1  0
  5 24  1  0
  6 25  1  0
  7 26  1  1
  8 27  1  0
 10 28  1  0
 11 29  1  0
 16 30  1  0
 17 31  1  0
 18 32  1  0
M  CHG  2  13   1  15  -1
M  END
$$$$
