
     RDKit          3D

 36 37  0  0  0  0  0  0  0  0999 V2000
    0.3553    3.7324    0.9835 C   0  0  0  0  0  0  0  0  0  0  0  0
    0.3111    2.3334    0.7023 O   0  0  0  0  0  0  0  0  0  0  0  0
    0.4754    2.0242   -0.6159 C   0  0  0  0  0  0  0  0  0  0  0  0
    0.6048    2.8509   -1.5129 O   0  0  0  0  0  0  0  0  0  0  0  0
    0.4636    0.5197   -0.8529 C   0  0  1  0  0  0  0  0  0  0  0  0
    1.6450   -0.1639   -0.1705 C   0  0  0  0  0  0  0  0  0  0  0  0
    2.9362    0.0696   -0.6841 C   0  0  0  0  0  0  0  0  0  0  0  0
    4.0630   -0.5151   -0.1025 C   0  0  0  0  0  0  0  0  0  0  0  0
    3.9216   -1.3436    1.0055 C   0  0  0  0  0  0  0  0  0  0  0  0
    2.6549   -1.5845    1.5297 C   0  0  0  0  0  0  0  0  0  0  0  0
    1.5265   -0.9986    0.9479 C   0  0  0  0  0  0  0  0  0  0  0  0
   -0.9926   -0.0131   -0.6709 C   0  0  1  0  0  0  0  0  0  0  0  0
   -1.1565   -1.4136   -1.3038 C   0  0  0  0  0  0  0  0  0  0  0  0
   -2.4469   -2.1252   -0.8800 C   0  0  0  0  0  0  0  0  0  0  0  0
   -3.4859   -1.1352   -0.3733 C   0  0  0  0  0  0  0  0  0  0  0  0
   -2.9357   -0.3005    0.7873 C   0  0  0  0  0  0  0  0  0  0  0  0
   -1.4977   -0.0406    0.7085 N   0  0  0  0  0  0  0  0  0  0  0  0
   -0.4686    4.2491    0.4816 H   0  0  0  0  0  0  0  0  0  0  0  0
    1.3196    4.1546    0.6838 H   0  0  0  0  0  0  0  0  0  0  0  0
    0.2404    3.8644    2.0628 H   0  0  0  0  0  0  0  0  0  0  0  0
    0.6635    0.4080   -1.9313 H   0  0  0  0  0  0  0  0  0  0  0  0
    3.0743    0.7161   -1.5499 H   0  0  0  0  0  0  0  0  0  0  0  0
    5.0495   -0.3218   -0.5155 H   0  0  0  0  0  0  0  0  0  0  0  0
    4.7958   -1.8005    1.4610 H   0  0  0  0  0  0  0  0  0  0  0  0
    2.5396   -2.2306    2.3963 H   0  0  0  0  0  0  0  0  0  0  0  0
    0.5591   -1.2157    1.3916 H   0  0  0  0  0  0  0  0  0  0  0  0
   -1.6349    0.6821   -1.2329 H   0  0  0  0  0  0  0  0  0  0  0  0
   -0.3104   -2.0681   -1.0656 H   0  0  0  0  0  0  0  0  0  0  0  0
   -1.1569   -1.3001   -2.3956 H   0  0  0  0  0  0  0  0  0  0  0  0
   -2.2168   -2.8428   -0.0821 H   0  0  0  0  0  0  0  0  0  0  0  0
   -2.8463   -2.7071   -1.7181 H   0  0  0  0  0  0  0  0  0  0  0  0
   -4.3895   -1.6656   -0.0528 H   0  0  0  0  0  0  0  0  0  0  0  0
   -3.7822   -0.4727   -1.1965 H   0  0  0  0  0  0  0  0  0  0  0  0
   -3.1301   -0.8181    1.7333 H   0  0  0  0  0  0  0  0  0  0  0  0
   -3.4825    0.6488    0.8296 H   0  0  0  0  0  0  0  0  0  0  0  0
   -1.2660    0.8239    1.2024 H   0  0  0  0  0  0  0  0  0  0  0  0
  1  2  1  0
  2  3  1  0
  3  4  2  0
  3  5  1  0
  5  6  1  0
  6  7  2  0
  7  8  1  0
  8  9  2  0
  9 10  1  0
 10 11  2  0
  5 12  1  0
 12 13  1  0
 13 14  1  0
 14 15  1  0
 15 16  1  0
 16 17  1  0
 11  6  1  0
 17 12  1  0
  1 18  1  0
  1 19  1  0
  1 20  1  0
  5 21  1  6
  7 22  1  0
  8 23  1  0
  9 24  1  0
 10 25  1  0
 11 26  1  0
 12 27  1  6
 13 28  1  0
 13 29  1  0
 14 30  1  0
 14 31  1  0
 15 32  1  0
 15 33  1  0
 16 34  1  0
 16 35  1  0
 17 36  1  0
M  END
$$$$
