
     RDKit          3D

 32 32  0  0  0  0  0  0  0  0999 V2000
    4.6050   -1.5595   -0.6089 C   0  0  0  0  0  0  0  0  0  0  0  0
    3.2309   -1.7009   -0.9470 O   0  0  0  0  0  0  0  0  0  0  0  0
    2.3655   -0.7863   -0.4129 C   0  0  0  0  0  0  0  0  0  0  0  0
    2.6968    0.2347    0.4739 C   0  0  0  0  0  0  0  0  0  0  0  0
    1.7043    1.0977    0.9426 C   0  0  0  0  0  0  0  0  0  0  0  0
    0.3803    0.9511    0.5167 C   0  0  0  0  0  0  0  0  0  0  0  0
   -0.5724    1.7961    1.0249 O   0  0  0  0  0  0  0  0  0  0  0  0
   -0.4563    3.0903    0.4262 C   0  0  0  0  0  0  0  0  0  0  0  0
    0.0146   -0.0832   -0.3545 C   0  0  0  0  0  0  0  0  0  0  0  0
   -1.4091   -0.3382   -0.8084 C   0  0  2  0  0  0  0  0  0  0  0  0
   -1.9520    0.8411   -1.4166 O   0  0  0  0  0  0  0  0  0  0  0  0
   -2.3548   -0.8401    0.3292 C   0  0  2  0  0  0  0  0  0  0  0  0
   -3.4479   -1.7452   -0.2432 C   0  0  0  0  0  0  0  0  0  0  0  0
   -3.0333    0.2921    0.9986 N   0  0  0  0  0  0  0  0  0  0  0  0
    1.0334   -0.9399   -0.8152 C   0  0  0  0  0  0  0  0  0  0  0  0
    5.1606   -2.3427   -1.1336 H   0  0  0  0  0  0  0  0  0  0  0  0
    4.7628   -1.7024    0.4652 H   0  0  0  0  0  0  0  0  0  0  0  0
    4.9972   -0.5928   -0.9419 H   0  0  0  0  0  0  0  0  0  0  0  0
    3.7117    0.3840    0.8253 H   0  0  0  0  0  0  0  0  0  0  0  0
    1.9654    1.8809    1.6490 H   0  0  0  0  0  0  0  0  0  0  0  0
   -0.3565    3.0316   -0.6636 H   0  0  0  0  0  0  0  0  0  0  0  0
    0.3872    3.6398    0.8566 H   0  0  0  0  0  0  0  0  0  0  0  0
   -1.3718    3.6448    0.6530 H   0  0  0  0  0  0  0  0  0  0  0  0
   -1.3860   -1.0907   -1.6060 H   0  0  0  0  0  0  0  0  0  0  0  0
   -2.6652    1.1115   -0.8000 H   0  0  0  0  0  0  0  0  0  0  0  0
   -1.7856   -1.4165    1.0685 H   0  0  0  0  0  0  0  0  0  0  0  0
   -4.1186   -2.1019    0.5466 H   0  0  0  0  0  0  0  0  0  0  0  0
   -3.0065   -2.6264   -0.7212 H   0  0  0  0  0  0  0  0  0  0  0  0
   -4.0535   -1.2232   -0.9927 H   0  0  0  0  0  0  0  0  0  0  0  0
   -3.5402   -0.0601    1.8111 H   0  0  0  0  0  0  0  0  0  0  0  0
   -2.2995    0.9028    1.3821 H   0  0  0  0  0  0  0  0  0  0  0  0
    0.7937   -1.7487   -1.5037 H   0  0  0  0  0  0  0  0  0  0  0  0
  1  2  1  0
  2  3  1  0
  3  4  2  0
  4  5  1  0
  5  6  2  0
  6  7  1  0
  7  8  1  0
  6  9  1  0
  9 10  1  0
 10 11  1  0
 10 12  1  0
 12 13  1  0
 12 14  1  0
  9 15  2  0
 15  3  1  0
  1 16  1  0
  1 17  1  0
  1 18  1  0
  4 19  1  0
  5 20  1  0
  8 21  1  0
  8 22  1  0
  8 23  1  0
 10 24  1  6
 11 25  1  0
 12 26  1  1
 13 27  1  0
 13 28  1  0
 13 29  1  0
 14 30  1  0
 14 31  1  0
 15 32  1  0
M  END
$$$$
