REMARK SMILES COc1ccc2c3c1O[C@H]1C[C@@H](O)C=C[C@@]31CCN(C)C2
REMARK SMILES IDX 21 1 6 2 3 3 4 4 8 5 5 6 7 7 9 8 16 9 10 10 15 11 11 12
REMARK SMILES IDX 14 13 12 14 2 15 1 16 17 17 13 19 19 21 20 22 18 23
REMARK H PARENT 13 20
REMARK Flexibility Score: 90.00
ROOT
ATOM      1  C   UNL     1       1.624  -1.728   1.387  1.00  0.00     0.120 C 
ENDROOT
BRANCH   1   2
ATOM      2  C   UNL     1       0.216  -1.541   0.880  1.00  0.00    -0.026 A 
ATOM      3  C   UNL     1      -2.328  -1.347  -0.375  1.00  0.00     0.161 A 
ATOM      4  C   UNL     1      -1.968  -2.502   0.320  1.00  0.00     0.051 A 
ATOM      5  C   UNL     1      -1.414  -0.300  -0.392  1.00  0.00     0.166 A 
ATOM      6  C   UNL     1      -0.703  -2.603   0.926  1.00  0.00     0.009 A 
ATOM      7  C   UNL     1      -0.195  -0.358   0.271  1.00  0.00     0.016 A 
ATOM      8  O   UNL     1      -1.592   0.842  -1.130  1.00  0.00    -0.485 OA
ATOM      9  C   UNL     1       0.574   0.909   0.068  1.00  0.00     0.056 C 
ATOM     10  C   UNL     1      -0.472   1.701  -0.798  1.00  0.00     0.191 C 
ATOM     11  C   UNL     1       0.934   1.639   1.353  1.00  0.00    -0.013 C 
ATOM     12  C   UNL     1      -1.086   2.938  -0.132  1.00  0.00     0.082 C 
ATOM     13  C   UNL     1       0.696   2.943   1.567  1.00  0.00     0.001 C 
ATOM     14  C   UNL     1      -0.049   3.784   0.585  1.00  0.00     0.140 C 
BRANCH   3  15
ATOM     15  O   UNL     1      -3.496  -1.154  -1.056  1.00  0.00    -0.493 OA
ATOM     16  C   UNL     1      -4.452  -2.203  -1.015  1.00  0.00     0.278 C 
ENDBRANCH   3  15
BRANCH   9  17
ATOM     17  C   UNL     1       1.847   0.605  -0.759  1.00  0.00     0.035 CG0
ATOM     18  G   UNL     1       2.951  -0.190  -0.032  1.00  0.00     0.000 G0
ENDBRANCH   9  17
BRANCH  14  19
ATOM     19  O   UNL     1      -0.722   4.820   1.286  1.00  0.00    -0.389 OA
ATOM     20  H   UNL     1      -0.044   5.389   1.685  1.00  0.00     0.211 HD
ENDBRANCH  14  19
ENDBRANCH   1   2
BRANCH   1  21
ATOM     21  N   UNL     1       2.677  -1.570   0.375  1.00  0.00    -0.302 NA
ATOM     22  C   UNL     1       2.537  -2.487  -0.752  1.00  0.00     0.105 C 
BRANCH  21  23
ATOM     23  C   UNL     1       2.951  -0.190  -0.032  1.00  0.00     0.086 CG0
ATOM     24  G   UNL     1       1.847   0.605  -0.759  1.00  0.00     0.000 G0
ENDBRANCH  21  23
ENDBRANCH   1  21
TORSDOF 2
