
     RDKit          3D

 47 49  0  0  0  0  0  0  0  0999 V2000
    4.9311    2.3391   -0.3773 C   0  0  0  0  0  0  0  0  0  0  0  0
    3.7239    1.7722   -0.2306 C   0  0  0  0  0  0  0  0  0  0  0  0
    2.9719    1.1511   -1.3845 C   0  0  0  0  0  0  0  0  0  0  0  0
    1.4519    1.1785   -1.1393 C   0  0  0  0  0  0  0  0  0  0  0  0
    1.0063    0.5406    0.1185 N   0  0  0  0  0  0  0  0  0  0  0  0
    0.2865   -0.7534   -0.0159 C   0  0  2  0  0  0  0  0  0  0  0  0
    1.0579   -1.7555   -0.9039 C   0  0  0  0  0  0  0  0  0  0  0  0
   -1.2430   -0.6177   -0.4539 C   0  0  2  0  0  0  0  0  0  0  0  0
   -1.2718   -0.3115   -1.8593 O   0  0  0  0  0  0  0  0  0  0  0  0
   -1.9951    0.4480    0.4010 C   0  0  0  0  0  0  0  0  0  0  0  0
   -1.6547    1.8296    0.1448 N   0  0  0  0  0  0  0  0  0  0  0  0
   -1.2589    2.7769    1.0358 C   0  0  0  0  0  0  0  0  0  0  0  0
   -1.1837    3.9418    0.4337 N   0  0  0  0  0  0  0  0  0  0  0  0
   -1.5525    3.6495   -0.8483 C   0  0  0  0  0  0  0  0  0  0  0  0
   -1.8522    2.3670   -1.0787 N   0  0  0  0  0  0  0  0  0  0  0  0
   -2.0635   -1.9243   -0.2959 C   0  0  0  0  0  0  0  0  0  0  0  0
   -1.7050   -2.9693    0.5782 C   0  0  0  0  0  0  0  0  0  0  0  0
   -2.4965   -4.1185    0.6937 C   0  0  0  0  0  0  0  0  0  0  0  0
   -3.6653   -4.2329   -0.0464 C   0  0  0  0  0  0  0  0  0  0  0  0
   -4.4186   -5.3333    0.0747 F   0  0  0  0  0  0  0  0  0  0  0  0
   -4.0689   -3.2154   -0.8910 C   0  0  0  0  0  0  0  0  0  0  0  0
   -3.2770   -2.0759   -1.0024 C   0  0  0  0  0  0  0  0  0  0  0  0
   -3.7350   -1.0834   -1.7802 F   0  0  0  0  0  0  0  0  0  0  0  0
    2.0645    0.5003    1.1493 C   0  0  0  0  0  0  0  0  0  0  0  0
    3.0103    1.7112    1.0985 C   0  0  0  0  0  0  0  0  0  0  0  0
    5.4531    2.7869    0.4629 H   0  0  0  0  0  0  0  0  0  0  0  0
    5.4262    2.3739   -1.3436 H   0  0  0  0  0  0  0  0  0  0  0  0
    3.1927    1.6847   -2.3165 H   0  0  0  0  0  0  0  0  0  0  0  0
    3.3051    0.1145   -1.5137 H   0  0  0  0  0  0  0  0  0  0  0  0
    0.9397    0.7790   -2.0190 H   0  0  0  0  0  0  0  0  0  0  0  0
    1.1470    2.2317   -1.0888 H   0  0  0  0  0  0  0  0  0  0  0  0
    0.2675   -1.1676    0.9992 H   0  0  0  0  0  0  0  0  0  0  0  0
    1.0911   -1.4453   -1.9528 H   0  0  0  0  0  0  0  0  0  0  0  0
    2.0890   -1.8826   -0.5593 H   0  0  0  0  0  0  0  0  0  0  0  0
    0.6015   -2.7490   -0.8805 H   0  0  0  0  0  0  0  0  0  0  0  0
   -1.4112    0.6567   -1.9485 H   0  0  0  0  0  0  0  0  0  0  0  0
   -1.8462    0.2534    1.4708 H   0  0  0  0  0  0  0  0  0  0  0  0
   -3.0774    0.4038    0.2210 H   0  0  0  0  0  0  0  0  0  0  0  0
   -1.0492    2.5743    2.0763 H   0  0  0  0  0  0  0  0  0  0  0  0
   -1.6050    4.3919   -1.6346 H   0  0  0  0  0  0  0  0  0  0  0  0
   -0.8067   -2.9303    1.1872 H   0  0  0  0  0  0  0  0  0  0  0  0
   -2.2065   -4.9265    1.3601 H   0  0  0  0  0  0  0  0  0  0  0  0
   -4.9926   -3.2966   -1.4517 H   0  0  0  0  0  0  0  0  0  0  0  0
    1.5877    0.4723    2.1362 H   0  0  0  0  0  0  0  0  0  0  0  0
    2.6665   -0.4129    1.0584 H   0  0  0  0  0  0  0  0  0  0  0  0
    2.4336    2.6333    1.2439 H   0  0  0  0  0  0  0  0  0  0  0  0
    3.7317    1.6400    1.9210 H   0  0  0  0  0  0  0  0  0  0  0  0
  1  2  2  0
  2  3  1  0
  3  4  1  0
  4  5  1  0
  5  6  1  0
  6  7  1  0
  6  8  1  0
  8  9  1  6
  8 10  1  0
 10 11  1  0
 11 12  1  0
 12 13  2  0
 13 14  1  0
 14 15  2  0
  8 16  1  0
 16 17  2  0
 17 18  1  0
 18 19  2  0
 19 20  1  0
 19 21  1  0
 21 22  2  0
 22 23  1  0
  5 24  1  0
 24 25  1  0
 25  2  1  0
 15 11  1  0
 22 16  1  0
  1 26  1  0
  1 27  1  0
  3 28  1  0
  3 29  1  0
  4 30  1  0
  4 31  1  0
  6 32  1  1
  7 33  1  0
  7 34  1  0
  7 35  1  0
  9 36  1  0
 10 37  1  0
 10 38  1  0
 12 39  1  0
 14 40  1  0
 17 41  1  0
 18 42  1  0
 21 43  1  0
 24 44  1  0
 24 45  1  0
 25 46  1  0
 25 47  1  0
M  END
$$$$
