REMARK SMILES C[C@H](CN(C)C)[C@](C)(O)Cc1ccc(Cl)cc1
REMARK SMILES IDX 1 1 2 2 3 3 4 4 5 5 6 6 7 7 8 8 9 9 10 11 11 12 12 13 17 14
REMARK SMILES IDX 13 15 16 16 14 17 15 18
REMARK H PARENT 9 10
REMARK Flexibility Score: inf
ROOT
ATOM      1  C   UNL     1      -1.515  -1.689  -0.979  1.00  0.00     0.012 C 
ATOM      2  C   UNL     1      -1.301  -0.731   0.203  1.00  0.00     0.032 C 
ENDROOT
BRANCH   2   3
ATOM      3  C   UNL     1      -2.053   0.609  -0.037  1.00  0.00     0.090 C 
BRANCH   3   4
ATOM      4  N   UNL     1      -3.508   0.462  -0.257  1.00  0.00    -0.309 NA
ATOM      5  C   UNL     1      -4.066   1.724  -0.753  1.00  0.00     0.104 C 
ATOM      6  C   UNL     1      -4.209   0.067   0.967  1.00  0.00     0.104 C 
ENDBRANCH   3   4
ENDBRANCH   2   3
BRANCH   2   7
ATOM      7  C   UNL     1       0.212  -0.499   0.553  1.00  0.00     0.070 C 
ATOM      8  C   UNL     1       0.904  -1.831   0.894  1.00  0.00     0.043 C 
BRANCH   7   9
ATOM      9  O   UNL     1       0.240   0.306   1.749  1.00  0.00    -0.390 OA
ATOM     10  H   UNL     1      -0.088  -0.240   2.484  1.00  0.00     0.211 HD
ENDBRANCH   7   9
BRANCH   7  11
ATOM     11  C   UNL     1       0.974   0.273  -0.562  1.00  0.00     0.070 C 
BRANCH  11  12
ATOM     12  C   UNL     1       2.476   0.385  -0.383  1.00  0.00    -0.045 A 
ATOM     13  C   UNL     1       3.347  -0.368  -1.184  1.00  0.00     0.005 A 
ATOM     14  C   UNL     1       3.015   1.245   0.585  1.00  0.00     0.005 A 
ATOM     15  C   UNL     1       4.730  -0.266  -1.017  1.00  0.00     0.021 A 
ATOM     16  C   UNL     1       4.398   1.347   0.753  1.00  0.00     0.021 A 
ATOM     17  C   UNL     1       5.249   0.591  -0.049  1.00  0.00     0.041 A 
ATOM     18  Cl  UNL     1       6.953   0.715   0.157  1.00  0.00    -0.084 Cl
ENDBRANCH  11  12
ENDBRANCH   7  11
ENDBRANCH   2   7
TORSDOF 6
