
     RDKit          3D

 39 41  0  0  0  0  0  0  0  0999 V2000
    1.6103   -1.8865   -0.9992 C   0  0  0  0  0  0  0  0  0  0  0  0
    1.3149   -0.7951    0.0441 C   0  0  1  0  0  0  0  0  0  0  0  0
    2.5618    0.0689    0.1766 C   0  0  0  0  0  0  0  0  0  0  0  0
    2.7579    1.0340   -0.7621 N   0  0  0  0  0  0  0  0  0  0  0  0
    3.8872    1.7617   -0.6416 C   0  0  0  0  0  0  0  0  0  0  0  0
    4.8151    1.6229    0.3172 N   0  0  0  0  0  0  0  0  0  0  0  0
    4.5803    0.6515    1.2247 C   0  0  0  0  0  0  0  0  0  0  0  0
    3.4686   -0.1565    1.1964 C   0  0  0  0  0  0  0  0  0  0  0  0
    3.2842   -1.1115    2.1148 F   0  0  0  0  0  0  0  0  0  0  0  0
    0.0213    0.0435   -0.2995 C   0  0  2  0  0  0  0  0  0  0  0  0
    0.1822    0.6083   -1.6218 O   0  0  0  0  0  0  0  0  0  0  0  0
   -0.1599    1.2254    0.6965 C   0  0  0  0  0  0  0  0  0  0  0  0
   -1.4278    1.9213    0.5842 N   0  0  0  0  0  0  0  0  0  0  0  0
   -1.8946    2.6577   -0.4603 C   0  0  0  0  0  0  0  0  0  0  0  0
   -3.0594    3.1769   -0.1462 N   0  0  0  0  0  0  0  0  0  0  0  0
   -3.2602    2.7278    1.1274 C   0  0  0  0  0  0  0  0  0  0  0  0
   -2.2811    1.9684    1.6258 N   0  0  0  0  0  0  0  0  0  0  0  0
   -1.2157   -0.8681   -0.3058 C   0  0  0  0  0  0  0  0  0  0  0  0
   -1.9800   -1.0728   -1.4698 C   0  0  0  0  0  0  0  0  0  0  0  0
   -3.1107   -1.8940   -1.4478 C   0  0  0  0  0  0  0  0  0  0  0  0
   -3.4880   -2.5166   -0.2646 C   0  0  0  0  0  0  0  0  0  0  0  0
   -4.5709   -3.3043   -0.2498 F   0  0  0  0  0  0  0  0  0  0  0  0
   -2.7576   -2.3370    0.8986 C   0  0  0  0  0  0  0  0  0  0  0  0
   -1.6341   -1.5186    0.8680 C   0  0  0  0  0  0  0  0  0  0  0  0
   -0.9354   -1.3611    2.0011 F   0  0  0  0  0  0  0  0  0  0  0  0
    2.5049   -2.4573   -0.7232 H   0  0  0  0  0  0  0  0  0  0  0  0
    1.7888   -1.4638   -1.9941 H   0  0  0  0  0  0  0  0  0  0  0  0
    0.7850   -2.6008   -1.0771 H   0  0  0  0  0  0  0  0  0  0  0  0
    1.1591   -1.2952    1.0075 H   0  0  0  0  0  0  0  0  0  0  0  0
    4.0618    2.5318   -1.3864 H   0  0  0  0  0  0  0  0  0  0  0  0
    5.3332    0.5339    1.9972 H   0  0  0  0  0  0  0  0  0  0  0  0
    1.1051    0.9377   -1.6800 H   0  0  0  0  0  0  0  0  0  0  0  0
   -0.0688    0.8844    1.7346 H   0  0  0  0  0  0  0  0  0  0  0  0
    0.5997    1.9996    0.5370 H   0  0  0  0  0  0  0  0  0  0  0  0
   -1.3668    2.7756   -1.3964 H   0  0  0  0  0  0  0  0  0  0  0  0
   -4.1416    2.9655    1.7089 H   0  0  0  0  0  0  0  0  0  0  0  0
   -1.7081   -0.5892   -2.4067 H   0  0  0  0  0  0  0  0  0  0  0  0
   -3.7009   -2.0454   -2.3468 H   0  0  0  0  0  0  0  0  0  0  0  0
   -3.0600   -2.8230    1.8185 H   0  0  0  0  0  0  0  0  0  0  0  0
  1  2  1  0
  2  3  1  0
  3  4  2  0
  4  5  1  0
  5  6  2  0
  6  7  1  0
  7  8  2  0
  8  9  1  0
  2 10  1  0
 10 11  1  6
 10 12  1  0
 12 13  1  0
 13 14  1  0
 14 15  2  0
 15 16  1  0
 16 17  2  0
 10 18  1  0
 18 19  2  0
 19 20  1  0
 20 21  2  0
 21 22  1  0
 21 23  1  0
 23 24  2  0
 24 25  1  0
  8  3  1  0
 17 13  1  0
 24 18  1  0
  1 26  1  0
  1 27  1  0
  1 28  1  0
  2 29  1  1
  5 30  1  0
  7 31  1  0
 11 32  1  0
 12 33  1  0
 12 34  1  0
 14 35  1  0
 16 36  1  0
 19 37  1  0
 20 38  1  0
 23 39  1  0
M  END
$$$$
