REMARK SMILES O=C(N[C@H](CO)[C@H](O)c1ccc([N+](=O)[O-])cc1)C(Cl)Cl
REMARK SMILES IDX 4 1 3 2 1 3 2 4 18 6 19 7 20 8 5 9 6 10 7 12 8 13 9 15 10 16
REMARK SMILES IDX 17 17 11 18 16 19 12 20 13 21 14 22 15 23
REMARK H PARENT 3 5 6 11 8 14
REMARK Flexibility Score: inf
ROOT
ATOM      1  C   UNL     1       1.060  -0.096   1.241  1.00  0.00     0.140 C 
ENDROOT
BRANCH   1   2
ATOM      2  N   UNL     1       1.413   0.992   0.320  1.00  0.00    -0.346 N 
ATOM      3  O   UNL     1       1.166   2.661   1.854  1.00  0.00    -0.272 OA
ATOM      4  C   UNL     1       1.463   2.313   0.710  1.00  0.00     0.253 C 
ATOM      5  H   UNL     1       1.832   0.719  -0.565  1.00  0.00     0.164 HD
BRANCH   4   6
ATOM      6  C   UNL     1       1.932   3.312  -0.347  1.00  0.00     0.260 C 
ATOM      7  Cl  UNL     1       0.947   3.146  -1.816  1.00  0.00    -0.095 Cl
ATOM      8  Cl  UNL     1       3.646   3.006  -0.704  1.00  0.00    -0.095 Cl
ENDBRANCH   4   6
ENDBRANCH   1   2
BRANCH   1   9
ATOM      9  C   UNL     1       2.263  -0.435   2.145  1.00  0.00     0.184 C 
BRANCH   9  10
ATOM     10  O   UNL     1       3.317  -1.027   1.379  1.00  0.00    -0.394 OA
ATOM     11  H   UNL     1       4.104  -1.041   1.956  1.00  0.00     0.210 HD
ENDBRANCH   9  10
ENDBRANCH   1   9
BRANCH   1  12
ATOM     12  C   UNL     1       0.598  -1.349   0.444  1.00  0.00     0.169 C 
BRANCH  12  13
ATOM     13  O   UNL     1       1.577  -1.698  -0.545  1.00  0.00    -0.386 OA
ATOM     14  H   UNL     1       2.440  -1.686  -0.076  1.00  0.00     0.211 HD
ENDBRANCH  12  13
BRANCH  12  15
ATOM     15  C   UNL     1      -0.753  -1.139  -0.221  1.00  0.00    -0.017 A 
ATOM     16  C   UNL     1      -1.930  -1.319   0.527  1.00  0.00     0.013 A 
ATOM     17  C   UNL     1      -0.860  -0.739  -1.564  1.00  0.00     0.013 A 
ATOM     18  C   UNL     1      -3.184  -1.107  -0.052  1.00  0.00     0.086 A 
ATOM     19  C   UNL     1      -2.109  -0.524  -2.152  1.00  0.00     0.086 A 
ATOM     20  C   UNL     1      -3.269  -0.709  -1.392  1.00  0.00     0.269 A 
BRANCH  20  21
ATOM     21  N   UNL     1      -4.584  -0.486  -2.003  1.00  0.00     0.062 N 
ATOM     22  O   UNL     1      -5.586  -0.650  -1.291  1.00  0.00    -0.258 OA
ATOM     23  O   UNL     1      -4.619  -0.145  -3.194  1.00  0.00    -0.258 OA
ENDBRANCH  20  21
ENDBRANCH  12  15
ENDBRANCH   1  12
TORSDOF 8
