REMARK SMILES C[C@H](N)[C@H](O)c1cccc(O)c1
REMARK SMILES IDX 4 1 2 2 1 3 3 4 5 7 6 9 7 10 12 11 8 12 10 13 9 14 11 15
REMARK H PARENT 3 5 3 6 5 8 11 16
REMARK Flexibility Score: inf
ROOT
ATOM      1  C   UNL     1      -0.695  -0.828   0.877  1.00  0.00     0.161 C 
ENDROOT
BRANCH   1   2
ATOM      2  C   UNL     1      -1.746  -0.868  -0.274  1.00  0.00     0.081 C 
ATOM      3  C   UNL     1      -2.357   0.499  -0.588  1.00  0.00     0.027 C 
BRANCH   2   4
ATOM      4  N   UNL     1      -2.865  -1.774   0.071  1.00  0.00    -0.325 NA
ATOM      5  H   UNL     1      -2.494  -2.694   0.302  1.00  0.00     0.119 HD
ATOM      6  H   UNL     1      -3.262  -1.429   0.951  1.00  0.00     0.119 HD
ENDBRANCH   2   4
ENDBRANCH   1   2
BRANCH   1   7
ATOM      7  O   UNL     1      -1.313  -0.401   2.098  1.00  0.00    -0.387 OA
ATOM      8  H   UNL     1      -0.594  -0.203   2.722  1.00  0.00     0.211 HD
ENDBRANCH   1   7
BRANCH   1   9
ATOM      9  C   UNL     1       0.538  -0.002   0.565  1.00  0.00    -0.014 A 
ATOM     10  C   UNL     1       0.613   1.362   0.894  1.00  0.00     0.007 A 
ATOM     11  C   UNL     1       1.631  -0.599  -0.087  1.00  0.00     0.052 A 
ATOM     12  C   UNL     1       1.754   2.108   0.592  1.00  0.00     0.004 A 
ATOM     13  C   UNL     1       2.764   0.155  -0.382  1.00  0.00     0.115 A 
ATOM     14  C   UNL     1       2.833   1.501  -0.046  1.00  0.00     0.046 A 
BRANCH  13  15
ATOM     15  O   UNL     1       3.841  -0.396  -1.011  1.00  0.00    -0.508 OA
ATOM     16  H   UNL     1       3.649  -1.328  -1.205  1.00  0.00     0.293 HD
ENDBRANCH  13  15
ENDBRANCH   1   9
TORSDOF 5
