
     RDKit          3D

 27 27  0  0  0  0  0  0  0  0999 V2000
   -3.3999    0.0651   -0.8240 C   0  0  0  0  0  0  0  0  0  0  0  0
   -2.6227   -0.8629   -0.0076 N   0  0  0  0  0  0  0  0  0  0  0  0
   -1.3137   -0.2879    0.4088 C   0  0  1  0  0  0  0  0  0  0  0  0
   -0.8017   -1.1551    1.5704 C   0  0  0  0  0  0  0  0  0  0  0  0
   -0.3081   -0.2696   -0.7882 C   0  0  2  0  0  0  0  0  0  0  0  0
   -0.2486   -1.5821   -1.3624 O   0  0  0  0  0  0  0  0  0  0  0  0
    1.0711    0.2478   -0.4283 C   0  0  0  0  0  0  0  0  0  0  0  0
    1.2529    1.6145   -0.1579 C   0  0  0  0  0  0  0  0  0  0  0  0
    2.5105    2.1128    0.1891 C   0  0  0  0  0  0  0  0  0  0  0  0
    3.6035    1.2532    0.2692 C   0  0  0  0  0  0  0  0  0  0  0  0
    3.4406   -0.1038    0.0005 C   0  0  0  0  0  0  0  0  0  0  0  0
    2.1835   -0.6028   -0.3465 C   0  0  0  0  0  0  0  0  0  0  0  0
   -4.3773   -0.3785   -1.0388 H   0  0  0  0  0  0  0  0  0  0  0  0
   -3.5707    1.0129   -0.3036 H   0  0  0  0  0  0  0  0  0  0  0  0
   -2.9196    0.2621   -1.7863 H   0  0  0  0  0  0  0  0  0  0  0  0
   -3.1672   -1.0770    0.8304 H   0  0  0  0  0  0  0  0  0  0  0  0
   -1.4593    0.7285    0.7964 H   0  0  0  0  0  0  0  0  0  0  0  0
   -1.5272   -1.1770    2.3920 H   0  0  0  0  0  0  0  0  0  0  0  0
    0.1295   -0.7546    1.9836 H   0  0  0  0  0  0  0  0  0  0  0  0
   -0.6181   -2.1890    1.2576 H   0  0  0  0  0  0  0  0  0  0  0  0
   -0.6920    0.3823   -1.5822 H   0  0  0  0  0  0  0  0  0  0  0  0
   -1.1666   -1.9126   -1.2836 H   0  0  0  0  0  0  0  0  0  0  0  0
    0.4136    2.3035   -0.2207 H   0  0  0  0  0  0  0  0  0  0  0  0
    2.6379    3.1725    0.3937 H   0  0  0  0  0  0  0  0  0  0  0  0
    4.5829    1.6402    0.5369 H   0  0  0  0  0  0  0  0  0  0  0  0
    4.2919   -0.7770    0.0575 H   0  0  0  0  0  0  0  0  0  0  0  0
    2.0748   -1.6655   -0.5557 H   0  0  0  0  0  0  0  0  0  0  0  0
  1  2  1  0
  2  3  1  0
  3  4  1  0
  3  5  1  0
  5  6  1  0
  5  7  1  0
  7  8  2  0
  8  9  1  0
  9 10  2  0
 10 11  1  0
 11 12  2  0
 12  7  1  0
  1 13  1  0
  1 14  1  0
  1 15  1  0
  2 16  1  0
  3 17  1  1
  4 18  1  0
  4 19  1  0
  4 20  1  0
  5 21  1  6
  6 22  1  0
  8 23  1  0
  9 24  1  0
 10 25  1  0
 11 26  1  0
 12 27  1  0
M  END
$$$$
