REMARK SMILES O=C(N[C@@H](CO)[C@H](O)c1ccc([N+](=O)[O-])cc1)C(Cl)Cl
REMARK SMILES IDX 4 1 3 2 1 3 2 4 18 6 19 7 20 8 5 9 6 10 7 12 8 13 9 15 10 16
REMARK SMILES IDX 17 17 11 18 16 19 12 20 13 21 14 22 15 23
REMARK H PARENT 3 5 6 11 8 14
REMARK Flexibility Score: inf
ROOT
ATOM      1  C   UNL     1       0.954  -1.449   0.127  1.00  0.00     0.140 C 
ENDROOT
BRANCH   1   2
ATOM      2  N   UNL     1       0.835  -0.624   1.339  1.00  0.00    -0.346 N 
ATOM      3  O   UNL     1       3.059  -0.723   1.875  1.00  0.00    -0.272 OA
ATOM      4  C   UNL     1       1.943  -0.247   2.081  1.00  0.00     0.253 C 
ATOM      5  H   UNL     1       0.026  -0.013   1.418  1.00  0.00     0.164 HD
BRANCH   4   6
ATOM      6  C   UNL     1       1.686   0.764   3.200  1.00  0.00     0.260 C 
ATOM      7  Cl  UNL     1       0.823  -0.054   4.518  1.00  0.00    -0.095 Cl
ATOM      8  Cl  UNL     1       0.717   2.119   2.571  1.00  0.00    -0.095 Cl
ENDBRANCH   4   6
ENDBRANCH   1   2
BRANCH   1   9
ATOM      9  C   UNL     1       1.333  -2.906   0.484  1.00  0.00     0.184 C 
BRANCH   9  10
ATOM     10  O   UNL     1       1.359  -3.735  -0.679  1.00  0.00    -0.394 OA
ATOM     11  H   UNL     1       1.773  -4.576  -0.409  1.00  0.00     0.210 HD
ENDBRANCH   9  10
ENDBRANCH   1   9
BRANCH   1  12
ATOM     12  C   UNL     1      -0.342  -1.425  -0.746  1.00  0.00     0.169 C 
BRANCH  12  13
ATOM     13  O   UNL     1      -0.122  -2.011  -2.030  1.00  0.00    -0.386 OA
ATOM     14  H   UNL     1       0.386  -2.836  -1.869  1.00  0.00     0.211 HD
ENDBRANCH  12  13
BRANCH  12  15
ATOM     15  C   UNL     1      -0.863  -0.018  -0.991  1.00  0.00    -0.017 A 
ATOM     16  C   UNL     1      -0.123   0.900  -1.756  1.00  0.00     0.013 A 
ATOM     17  C   UNL     1      -2.086   0.390  -0.434  1.00  0.00     0.013 A 
ATOM     18  C   UNL     1      -0.585   2.203  -1.954  1.00  0.00     0.086 A 
ATOM     19  C   UNL     1      -2.556   1.692  -0.626  1.00  0.00     0.086 A 
ATOM     20  C   UNL     1      -1.801   2.595  -1.385  1.00  0.00     0.269 A 
BRANCH  20  21
ATOM     21  N   UNL     1      -2.292   3.964  -1.587  1.00  0.00     0.062 N 
ATOM     22  O   UNL     1      -1.590   4.737  -2.256  1.00  0.00    -0.258 OA
ATOM     23  O   UNL     1      -3.378   4.269  -1.073  1.00  0.00    -0.258 OA
ENDBRANCH  20  21
ENDBRANCH  12  15
ENDBRANCH   1  12
TORSDOF 8
