REMARK SMILES COC(=O)[C@@H](c1ccccc1)[C@H]1CCCCN1
REMARK SMILES IDX 3 1 4 2 2 3 1 4 5 5 6 6 7 7 11 8 8 9 10 10 9 11 12 12 13 13
REMARK SMILES IDX 17 14 14 15 16 16 15 18
REMARK H PARENT 17 17
REMARK Flexibility Score: inf
ROOT
ATOM      1  C   UNL     1       0.475   2.024  -0.616  1.00  0.00     0.314 C 
ATOM      2  O   UNL     1       0.605   2.851  -1.513  1.00  0.00    -0.252 OA
ENDROOT
BRANCH   1   3
ATOM      3  O   UNL     1       0.311   2.333   0.702  1.00  0.00    -0.469 OA
ATOM      4  C   UNL     1       0.355   3.732   0.984  1.00  0.00     0.282 C 
ENDBRANCH   1   3
BRANCH   1   5
ATOM      5  C   UNL     1       0.464   0.520  -0.853  1.00  0.00     0.146 C 
BRANCH   5   6
ATOM      6  C   UNL     1       1.645  -0.164  -0.171  1.00  0.00    -0.032 A 
ATOM      7  C   UNL     1       2.936   0.070  -0.684  1.00  0.00     0.004 A 
ATOM      8  C   UNL     1       1.526  -0.999   0.948  1.00  0.00     0.004 A 
ATOM      9  C   UNL     1       4.063  -0.515  -0.102  1.00  0.00     0.000 A 
ATOM     10  C   UNL     1       2.655  -1.585   1.530  1.00  0.00     0.000 A 
ATOM     11  C   UNL     1       3.922  -1.344   1.006  1.00  0.00     0.000 A 
ENDBRANCH   5   6
BRANCH   5  12
ATOM     12  C   UNL     1      -0.993  -0.013  -0.671  1.00  0.00     0.072 C 
ATOM     13  C   UNL     1      -1.157  -1.414  -1.304  1.00  0.00     0.020 C 
ATOM     14  N   UNL     1      -1.498  -0.041   0.709  1.00  0.00    -0.313 NA
ATOM     15  C   UNL     1      -2.447  -2.125  -0.880  1.00  0.00     0.003 C 
ATOM     16  C   UNL     1      -2.936  -0.300   0.787  1.00  0.00     0.081 C 
ATOM     17  H   UNL     1      -1.266   0.824   1.202  1.00  0.00     0.123 HD
ATOM     18  C   UNL     1      -3.486  -1.135  -0.373  1.00  0.00     0.015 C 
ENDBRANCH   5  12
ENDBRANCH   1   5
TORSDOF 4
