REMARK SMILES COc1ccc(OC)c([C@H](O)[C@H](C)N)c1
REMARK SMILES IDX 10 1 9 2 3 3 4 4 15 5 5 6 6 7 2 8 1 9 7 10 8 11 11 12 12 14
REMARK SMILES IDX 13 15 14 16
REMARK H PARENT 11 13 14 17 14 18
REMARK Flexibility Score: inf
ROOT
ATOM      1  C   UNL     1      -1.409  -0.338  -0.808  1.00  0.00     0.165 C 
ENDROOT
BRANCH   1   2
ATOM      2  C   UNL     1       0.015  -0.083  -0.354  1.00  0.00     0.028 A 
ATOM      3  C   UNL     1       2.365  -0.786  -0.413  1.00  0.00     0.119 A 
ATOM      4  C   UNL     1       2.697   0.235   0.474  1.00  0.00     0.050 A 
ATOM      5  C   UNL     1       1.033  -0.940  -0.815  1.00  0.00     0.056 A 
ATOM      6  C   UNL     1       1.704   1.098   0.943  1.00  0.00     0.050 A 
ATOM      7  C   UNL     1       0.380   0.951   0.517  1.00  0.00     0.124 A 
BRANCH   3   8
ATOM      8  O   UNL     1       3.231  -1.701  -0.947  1.00  0.00    -0.497 OA
ATOM      9  C   UNL     1       4.605  -1.560  -0.609  1.00  0.00     0.278 C 
ENDBRANCH   3   8
BRANCH   7  10
ATOM     10  O   UNL     1      -0.572   1.796   1.025  1.00  0.00    -0.496 OA
ATOM     11  C   UNL     1      -0.456   3.090   0.426  1.00  0.00     0.278 C 
ENDBRANCH   7  10
ENDBRANCH   1   2
BRANCH   1  12
ATOM     12  O   UNL     1      -1.952   0.841  -1.417  1.00  0.00    -0.387 OA
ATOM     13  H   UNL     1      -2.665   1.111  -0.800  1.00  0.00     0.211 HD
ENDBRANCH   1  12
BRANCH   1  14
ATOM     14  C   UNL     1      -2.355  -0.840   0.329  1.00  0.00     0.081 C 
ATOM     15  C   UNL     1      -3.448  -1.745  -0.243  1.00  0.00     0.027 C 
BRANCH  14  16
ATOM     16  N   UNL     1      -3.033   0.292   0.999  1.00  0.00    -0.325 NA
ATOM     17  H   UNL     1      -3.540  -0.060   1.811  1.00  0.00     0.119 HD
ATOM     18  H   UNL     1      -2.300   0.903   1.382  1.00  0.00     0.119 HD
ENDBRANCH  14  16
ENDBRANCH   1  14
TORSDOF 6
