REMARK SMILES NS(=O)(=O)c1ccc(N/N=C2\C(=O)Nc3ccc(C(=O)NCCc4c[nH]cn4)cc32)cc1
REMARK SMILES IDX 13 1 12 2 11 3 10 4 30 5 15 6 14 7 16 8 17 9 18 10 29 11
REMARK SMILES IDX 9 13 8 15 7 16 31 17 6 18 32 19 5 20 2 21 3 22 4 23 1 24
REMARK SMILES IDX 19 27 20 28 21 29 22 31 23 32 24 33 25 34 28 35 26 36 27 37
REMARK H PARENT 14 12 9 14 1 25 1 26 21 30 26 38
REMARK Flexibility Score: inf
ROOT
ATOM      1  O   UNL     1       2.031   4.569  -0.115  1.00  0.00    -0.267 OA
ATOM      2  C   UNL     1       0.962   4.138  -0.491  1.00  0.00     0.276 C 
ATOM      3  C   UNL     1       0.543   2.662  -0.471  1.00  0.00     0.158 C 
ATOM      4  N   UNL     1       1.209   1.637  -0.043  1.00  0.00    -0.169 NA
ATOM      5  C   UNL     1      -0.797   2.621  -1.043  1.00  0.00     0.032 A 
ATOM      6  C   UNL     1      -1.138   3.936  -1.354  1.00  0.00     0.051 A 
ATOM      7  N   UNL     1      -0.110   4.817  -1.028  1.00  0.00    -0.320 N 
ATOM      8  C   UNL     1      -2.356   4.244  -1.918  1.00  0.00     0.027 A 
ATOM      9  C   UNL     1      -3.236   3.180  -2.158  1.00  0.00     0.016 A 
ATOM     10  C   UNL     1      -2.893   1.840  -1.834  1.00  0.00     0.040 A 
ATOM     11  C   UNL     1      -1.642   1.552  -1.272  1.00  0.00     0.026 A 
ATOM     12  H   UNL     1      -0.117   5.816  -1.172  1.00  0.00     0.170 HD
ENDROOT
BRANCH   4  13
ATOM     13  N   UNL     1       2.435   1.893   0.484  1.00  0.00    -0.278 N 
ATOM     14  H   UNL     1       2.859   2.822   0.370  1.00  0.00     0.190 HD
BRANCH  13  15
ATOM     15  C   UNL     1       3.355   0.835   0.615  1.00  0.00     0.056 A 
ATOM     16  C   UNL     1       4.668   1.118   1.022  1.00  0.00     0.029 A 
ATOM     17  C   UNL     1       2.984  -0.507   0.444  1.00  0.00     0.029 A 
ATOM     18  C   UNL     1       5.599   0.093   1.217  1.00  0.00     0.024 A 
ATOM     19  C   UNL     1       3.905  -1.542   0.632  1.00  0.00     0.024 A 
ATOM     20  C   UNL     1       5.208  -1.234   1.026  1.00  0.00     0.082 A 
BRANCH  20  21
ATOM     21  S   UNL     1       6.384  -2.535   1.279  1.00  0.00     0.238 S 
ATOM     22  O   UNL     1       7.710  -2.003   1.075  1.00  0.00    -0.207 OA
ATOM     23  O   UNL     1       5.911  -3.725   0.609  1.00  0.00    -0.207 OA
BRANCH  21  24
ATOM     24  N   UNL     1       6.195  -2.837   2.927  1.00  0.00    -0.225 NA
ATOM     25  H   UNL     1       5.618  -2.139   3.395  1.00  0.00     0.137 HD
ATOM     26  H   UNL     1       5.824  -3.781   3.044  1.00  0.00     0.137 HD
ENDBRANCH  21  24
ENDBRANCH  20  21
ENDBRANCH  13  15
ENDBRANCH   4  13
BRANCH  10  27
ATOM     27  C   UNL     1      -3.898   0.775  -2.132  1.00  0.00     0.251 C 
ATOM     28  O   UNL     1      -4.843   1.015  -2.875  1.00  0.00    -0.269 OA
ATOM     29  N   UNL     1      -3.712  -0.440  -1.519  1.00  0.00    -0.352 N 
ATOM     30  H   UNL     1      -3.097  -0.506  -0.709  1.00  0.00     0.163 HD
BRANCH  29  31
ATOM     31  C   UNL     1      -4.714  -1.489  -1.583  1.00  0.00     0.122 C 
BRANCH  31  32
ATOM     32  C   UNL     1      -4.168  -2.833  -1.097  1.00  0.00     0.079 C 
BRANCH  32  33
ATOM     33  C   UNL     1      -3.719  -2.792   0.327  1.00  0.00     0.060 A 
ATOM     34  C   UNL     1      -4.130  -3.559   1.395  1.00  0.00     0.107 A 
ATOM     35  N   UNL     1      -2.755  -1.889   0.733  1.00  0.00    -0.242 NA
ATOM     36  N   UNL     1      -3.399  -3.115   2.462  1.00  0.00    -0.351 N 
ATOM     37  C   UNL     1      -2.586  -2.111   2.017  1.00  0.00     0.196 A 
ATOM     38  H   UNL     1      -3.446  -3.462   3.411  1.00  0.00     0.167 HD
ENDBRANCH  32  33
ENDBRANCH  31  32
ENDBRANCH  29  31
ENDBRANCH  10  27
TORSDOF 8
