REMARK SMILES CC(C)COC(=O)c1ccc2c(c1)/C(=N/Nc1ccc(S(N)(=O)=O)cc1)C(=O)N2
REMARK SMILES IDX 28 1 27 2 14 3 15 4 12 5 11 6 29 7 10 8 9 9 8 10 13 11 16 13
REMARK SMILES IDX 17 15 18 16 26 17 19 18 25 19 20 20 21 21 23 22 24 23 22 24
REMARK SMILES IDX 6 27 7 28 5 29 4 30 2 31 1 32 3 33
REMARK H PARENT 29 12 16 14 22 25 22 26
REMARK Flexibility Score: inf
ROOT
ATOM      1  O   UNL     1       2.183   0.619   4.059  1.00  0.00    -0.267 OA
ATOM      2  C   UNL     1       1.139   0.343   3.509  1.00  0.00     0.276 C 
ATOM      3  C   UNL     1       0.973   0.024   2.018  1.00  0.00     0.158 C 
ATOM      4  N   UNL     1       1.880  -0.039   1.097  1.00  0.00    -0.169 NA
ATOM      5  C   UNL     1      -0.453  -0.205   1.815  1.00  0.00     0.032 A 
ATOM      6  C   UNL     1      -1.061  -0.053   3.060  1.00  0.00     0.051 A 
ATOM      7  N   UNL     1      -0.130   0.263   4.044  1.00  0.00    -0.320 N 
ATOM      8  C   UNL     1      -2.421  -0.207   3.214  1.00  0.00     0.028 A 
ATOM      9  C   UNL     1      -3.168  -0.526   2.070  1.00  0.00     0.018 A 
ATOM     10  C   UNL     1      -2.547  -0.683   0.803  1.00  0.00     0.060 A 
ATOM     11  C   UNL     1      -1.160  -0.518   0.672  1.00  0.00     0.028 A 
ATOM     12  H   UNL     1      -0.327   0.431   5.020  1.00  0.00     0.170 HD
ENDROOT
BRANCH   4  13
ATOM     13  N   UNL     1       3.159   0.182   1.496  1.00  0.00    -0.278 N 
ATOM     14  H   UNL     1       3.354   0.555   2.432  1.00  0.00     0.190 HD
BRANCH  13  15
ATOM     15  C   UNL     1       4.149   0.433   0.528  1.00  0.00     0.056 A 
ATOM     16  C   UNL     1       5.431   0.822   0.943  1.00  0.00     0.029 A 
ATOM     17  C   UNL     1       3.925   0.228  -0.842  1.00  0.00     0.029 A 
ATOM     18  C   UNL     1       6.456   1.035   0.015  1.00  0.00     0.024 A 
ATOM     19  C   UNL     1       4.941   0.437  -1.779  1.00  0.00     0.024 A 
ATOM     20  C   UNL     1       6.205   0.832  -1.344  1.00  0.00     0.082 A 
BRANCH  20  21
ATOM     21  S   UNL     1       7.490   1.121  -2.521  1.00  0.00     0.238 S 
ATOM     22  O   UNL     1       8.431   2.072  -1.976  1.00  0.00    -0.207 OA
ATOM     23  O   UNL     1       6.914   1.272  -3.837  1.00  0.00    -0.207 OA
BRANCH  21  24
ATOM     24  N   UNL     1       8.286  -0.358  -2.537  1.00  0.00    -0.225 NA
ATOM     25  H   UNL     1       8.203  -0.787  -3.459  1.00  0.00     0.137 HD
ATOM     26  H   UNL     1       9.247  -0.238  -2.218  1.00  0.00     0.137 HD
ENDBRANCH  21  24
ENDBRANCH  20  21
ENDBRANCH  13  15
ENDBRANCH   4  13
BRANCH  10  27
ATOM     27  C   UNL     1      -3.323  -1.019  -0.423  1.00  0.00     0.338 C 
ATOM     28  O   UNL     1      -2.818  -1.123  -1.528  1.00  0.00    -0.246 OA
BRANCH  27  29
ATOM     29  O   UNL     1      -4.636  -1.181  -0.124  1.00  0.00    -0.462 OA
BRANCH  29  30
ATOM     30  C   UNL     1      -5.491  -1.506  -1.232  1.00  0.00     0.236 C 
BRANCH  30  31
ATOM     31  C   UNL     1      -5.957  -0.238  -1.962  1.00  0.00     0.021 C 
ATOM     32  C   UNL     1      -6.719   0.697  -1.021  1.00  0.00     0.011 C 
ATOM     33  C   UNL     1      -6.823  -0.606  -3.165  1.00  0.00     0.011 C 
ENDBRANCH  30  31
ENDBRANCH  29  30
ENDBRANCH  27  29
ENDBRANCH  10  27
TORSDOF 8
