REMARK SMILES O=C(Nc1cc(C2CCCCC2)[nH]n1)c1ccc(Br)cc1
REMARK SMILES IDX 4 1 14 2 13 3 6 4 5 5 3 7 2 8 1 9 15 11 19 12 18 13 17 14
REMARK SMILES IDX 20 15 16 16 21 17 7 18 8 19 12 20 9 21 11 22 10 23
REMARK H PARENT 13 6 3 10
REMARK Flexibility Score: inf
ROOT
ATOM      1  C   UNL     1       0.659   0.026  -0.130  1.00  0.00     0.154 A 
ATOM      2  N   UNL     1       0.029  -0.038  -1.300  1.00  0.00    -0.157 NA
ATOM      3  N   UNL     1      -1.267   0.099  -1.003  1.00  0.00    -0.280 N 
ATOM      4  C   UNL     1      -1.511   0.265   0.333  1.00  0.00     0.040 A 
ATOM      5  C   UNL     1      -0.265   0.223   0.925  1.00  0.00     0.072 A 
ATOM      6  H   UNL     1      -1.932   0.074  -1.768  1.00  0.00     0.190 HD
ENDROOT
BRANCH   1   7
ATOM      7  N   UNL     1       2.022  -0.067   0.059  1.00  0.00    -0.305 N 
ATOM      8  C   UNL     1       2.946  -0.329  -0.931  1.00  0.00     0.256 C 
ATOM      9  O   UNL     1       2.741  -0.592  -2.109  1.00  0.00    -0.269 OA
ATOM     10  H   UNL     1       2.331   0.001   1.015  1.00  0.00     0.171 HD
BRANCH   8  11
ATOM     11  C   UNL     1       4.362  -0.327  -0.463  1.00  0.00     0.040 A 
ATOM     12  Br  UNL     1       8.838  -0.418   0.911  1.00  0.00    -0.051 Br
ATOM     13  C   UNL     1       7.032  -0.380   0.353  1.00  0.00     0.018 A 
ATOM     14  C   UNL     1       6.158   0.558   0.904  1.00  0.00     0.016 A 
ATOM     15  C   UNL     1       6.587  -1.284  -0.611  1.00  0.00     0.016 A 
ATOM     16  C   UNL     1       4.822   0.590   0.493  1.00  0.00     0.015 A 
ATOM     17  C   UNL     1       5.253  -1.253  -1.023  1.00  0.00     0.015 A 
ENDBRANCH   8  11
ENDBRANCH   1   7
BRANCH   4  18
ATOM     18  C   UNL     1      -2.881   0.442   0.923  1.00  0.00     0.038 C 
ATOM     19  C   UNL     1      -3.689  -0.864   0.886  1.00  0.00     0.010 C 
ATOM     20  C   UNL     1      -3.634   1.640   0.312  1.00  0.00     0.010 C 
ATOM     21  C   UNL     1      -4.328  -1.167  -0.469  1.00  0.00     0.001 C 
ATOM     22  C   UNL     1      -5.004   1.276  -0.257  1.00  0.00     0.001 C 
ATOM     23  C   UNL     1      -4.918   0.059  -1.167  1.00  0.00     0.000 C 
ENDBRANCH   4  18
TORSDOF 3
