REMARK SMILES COc1ccc(NC(=O)CSc2nnnn2C)cc1
REMARK SMILES IDX 8 1 9 2 7 3 10 5 11 6 12 7 16 8 17 9 15 10 14 11 13 12 6 13
REMARK SMILES IDX 5 14 18 15 4 16 19 17 3 18 2 19 1 20
REMARK H PARENT 7 4
REMARK Flexibility Score: inf
ROOT
ATOM      1  C   UNL     1      -0.835  -2.077   0.728  1.00  0.00     0.234 C 
ATOM      2  O   UNL     1      -0.658  -2.903  -0.165  1.00  0.00    -0.274 OA
ATOM      3  N   UNL     1      -0.089  -0.930   0.942  1.00  0.00    -0.325 N 
ATOM      4  H   UNL     1      -0.442  -0.283   1.645  1.00  0.00     0.169 HD
ENDROOT
BRANCH   1   5
ATOM      5  C   UNL     1      -1.967  -2.251   1.730  1.00  0.00     0.178 C 
BRANCH   5   6
ATOM      6  S   UNL     1      -3.470  -1.408   1.151  1.00  0.00    -0.075 SA
BRANCH   6   7
ATOM      7  C   UNL     1      -3.096   0.234   1.524  1.00  0.00     0.209 A 
ATOM      8  N   UNL     1      -3.811   1.305   1.077  1.00  0.00    -0.224 N 
ATOM      9  C   UNL     1      -4.978   1.350   0.242  1.00  0.00     0.179 C 
ATOM     10  N   UNL     1      -3.244   2.437   1.532  1.00  0.00    -0.045 NA
ATOM     11  N   UNL     1      -2.199   2.042   2.248  1.00  0.00    -0.023 NA
ATOM     12  N   UNL     1      -2.094   0.671   2.252  1.00  0.00    -0.102 NA
ENDBRANCH   6   7
ENDBRANCH   5   6
ENDBRANCH   1   5
BRANCH   3  13
ATOM     13  C   UNL     1       1.031  -0.481   0.215  1.00  0.00     0.041 A 
ATOM     14  C   UNL     1       1.536   0.782   0.541  1.00  0.00     0.030 A 
ATOM     15  C   UNL     1       1.658  -1.216  -0.791  1.00  0.00     0.030 A 
ATOM     16  C   UNL     1       2.647   1.297  -0.134  1.00  0.00     0.048 A 
ATOM     17  C   UNL     1       2.773  -0.698  -1.466  1.00  0.00     0.048 A 
ATOM     18  C   UNL     1       3.272   0.562  -1.141  1.00  0.00     0.119 A 
BRANCH  18  19
ATOM     19  O   UNL     1       4.346   1.179  -1.720  1.00  0.00    -0.497 OA
ATOM     20  C   UNL     1       5.013   0.467  -2.755  1.00  0.00     0.278 C 
ENDBRANCH  18  19
ENDBRANCH   3  13
TORSDOF 5
