REMARK SMILES CCOc1ccc(C(C)=O)cc1Cc1c(O)nc(N)nc1O
REMARK SMILES IDX 7 1 6 2 5 3 4 4 12 5 11 6 8 7 10 8 9 9 13 10 14 11 15 12
REMARK SMILES IDX 21 13 17 14 20 15 18 16 16 17 22 19 19 21 3 24 2 25 1 26
REMARK H PARENT 16 18 22 20 19 22 19 23
REMARK Flexibility Score: inf
ROOT
ATOM      1  C   UNL     1      -1.574  -1.049   2.224  1.00  0.00     0.018 A 
ATOM      2  C   UNL     1      -2.516  -0.039   2.013  1.00  0.00     0.015 A 
ATOM      3  C   UNL     1      -2.555   0.657   0.801  1.00  0.00     0.047 A 
ATOM      4  C   UNL     1      -1.655   0.349  -0.223  1.00  0.00     0.122 A 
ATOM      5  C   UNL     1      -0.702  -0.669  -0.026  1.00  0.00    -0.000 A 
ATOM      6  C   UNL     1      -0.671  -1.360   1.202  1.00  0.00     0.019 A 
ENDROOT
BRANCH   1   7
ATOM      7  C   UNL     1      -1.570  -1.759   3.538  1.00  0.00     0.159 C 
ATOM      8  O   UNL     1      -2.444  -1.515   4.367  1.00  0.00    -0.295 OA
ATOM      9  C   UNL     1      -0.488  -2.768   3.820  1.00  0.00     0.093 C 
ENDBRANCH   1   7
BRANCH   5  10
ATOM     10  C   UNL     1       0.310  -1.034  -1.095  1.00  0.00     0.086 C 
BRANCH  10  11
ATOM     11  C   UNL     1       1.620  -0.324  -0.954  1.00  0.00     0.081 A 
ATOM     12  C   UNL     1       1.907   0.912  -1.487  1.00  0.00     0.223 A 
ATOM     13  C   UNL     1       2.682  -0.859  -0.266  1.00  0.00     0.223 A 
ATOM     14  N   UNL     1       3.095   1.527  -1.376  1.00  0.00    -0.177 NA
ATOM     15  N   UNL     1       3.887  -0.301  -0.111  1.00  0.00    -0.177 NA
ATOM     16  C   UNL     1       4.034   0.898  -0.674  1.00  0.00     0.226 A 
BRANCH  12  17
ATOM     17  O   UNL     1       1.000   1.628  -2.212  1.00  0.00    -0.493 OA
ATOM     18  H   UNL     1       0.106   1.345  -1.952  1.00  0.00     0.295 HD
ENDBRANCH  12  17
BRANCH  13  19
ATOM     19  O   UNL     1       2.589  -2.074   0.338  1.00  0.00    -0.493 OA
ATOM     20  H   UNL     1       3.487  -2.146   0.713  1.00  0.00     0.295 HD
ENDBRANCH  13  19
BRANCH  16  21
ATOM     21  N   UNL     1       5.262   1.514  -0.560  1.00  0.00    -0.368 N 
ATOM     22  H   UNL     1       5.994   0.829  -0.444  1.00  0.00     0.159 HD
ATOM     23  H   UNL     1       5.369   2.188  -1.306  1.00  0.00     0.159 HD
ENDBRANCH  16  21
ENDBRANCH  10  11
ENDBRANCH   5  10
BRANCH   4  24
ATOM     24  O   UNL     1      -1.606   0.990  -1.434  1.00  0.00    -0.494 OA
BRANCH  24  25
ATOM     25  C   UNL     1      -2.680   1.884  -1.744  1.00  0.00     0.226 C 
ATOM     26  C   UNL     1      -2.495   2.357  -3.175  1.00  0.00     0.049 C 
ENDBRANCH  24  25
ENDBRANCH   4  24
TORSDOF 8
