REMARK SMILES COC(=O)c1ccc(NC(=O)CSc2nnc(-c3ccc(NC(C)=O)cc3)n2C)cc1
REMARK SMILES IDX 12 1 13 2 14 3 28 4 29 5 17 6 16 7 15 8 18 9 19 10 27 11
REMARK SMILES IDX 20 12 26 13 21 14 22 15 23 16 25 18 24 19 10 20 11 21 9 22
REMARK SMILES IDX 8 24 7 25 30 26 6 27 31 28 5 29 3 30 4 31 2 32 1 33
REMARK H PARENT 22 17 9 23
REMARK Flexibility Score: inf
ROOT
ATOM      1  C   UNL     1      -1.417   1.884   4.269  1.00  0.00     0.178 C 
ENDROOT
BRANCH   1   2
ATOM      2  S   UNL     1      -0.030   0.714   4.333  1.00  0.00    -0.076 SA
BRANCH   2   3
ATOM      3  C   UNL     1       0.591   0.836   2.726  1.00  0.00     0.191 A 
ATOM      4  N   UNL     1       1.687   0.163   2.266  1.00  0.00    -0.305 N 
ATOM      5  C   UNL     1       2.572  -0.689   3.019  1.00  0.00     0.154 C 
ATOM      6  C   UNL     1       1.820   0.526   0.940  1.00  0.00     0.164 A 
ATOM      7  N   UNL     1       0.855   1.386   0.650  1.00  0.00    -0.129 NA
ATOM      8  N   UNL     1       0.088   1.577   1.767  1.00  0.00    -0.123 NA
BRANCH   6   9
ATOM      9  C   UNL     1       2.878   0.109   0.021  1.00  0.00     0.019 A 
ATOM     10  C   UNL     1       3.250  -1.229  -0.133  1.00  0.00     0.014 A 
ATOM     11  C   UNL     1       3.546   1.079  -0.734  1.00  0.00     0.014 A 
ATOM     12  C   UNL     1       4.297  -1.588  -0.994  1.00  0.00     0.027 A 
ATOM     13  C   UNL     1       4.583   0.722  -1.602  1.00  0.00     0.027 A 
ATOM     14  C   UNL     1       4.976  -0.615  -1.730  1.00  0.00     0.041 A 
BRANCH  14  15
ATOM     15  N   UNL     1       6.043  -0.891  -2.608  1.00  0.00    -0.326 N 
ATOM     16  C   UNL     1       6.686  -2.102  -2.796  1.00  0.00     0.221 C 
ATOM     17  H   UNL     1       6.403  -0.102  -3.130  1.00  0.00     0.169 HD
ATOM     18  O   UNL     1       6.472  -3.150  -2.195  1.00  0.00    -0.275 OA
ATOM     19  C   UNL     1       7.780  -2.014  -3.833  1.00  0.00     0.114 C 
ENDBRANCH  14  15
ENDBRANCH   6   9
ENDBRANCH   2   3
ENDBRANCH   1   2
BRANCH   1  20
ATOM     20  C   UNL     1      -2.651   1.234   3.664  1.00  0.00     0.234 C 
ATOM     21  O   UNL     1      -3.521   0.753   4.386  1.00  0.00    -0.274 OA
ATOM     22  N   UNL     1      -2.663   1.260   2.279  1.00  0.00    -0.325 N 
ATOM     23  H   UNL     1      -1.795   1.551   1.826  1.00  0.00     0.169 HD
BRANCH  22  24
ATOM     24  C   UNL     1      -3.699   0.850   1.419  1.00  0.00     0.041 A 
ATOM     25  C   UNL     1      -4.978   0.499   1.853  1.00  0.00     0.027 A 
ATOM     26  C   UNL     1      -3.419   0.831   0.047  1.00  0.00     0.027 A 
ATOM     27  C   UNL     1      -5.967   0.137   0.929  1.00  0.00     0.018 A 
ATOM     28  C   UNL     1      -4.404   0.462  -0.879  1.00  0.00     0.018 A 
ATOM     29  C   UNL     1      -5.685   0.115  -0.442  1.00  0.00     0.060 A 
BRANCH  29  30
ATOM     30  C   UNL     1      -6.778  -0.256  -1.379  1.00  0.00     0.337 C 
ATOM     31  O   UNL     1      -7.951  -0.336  -1.049  1.00  0.00    -0.246 OA
BRANCH  30  32
ATOM     32  O   UNL     1      -6.284  -0.490  -2.622  1.00  0.00    -0.465 OA
ATOM     33  C   UNL     1      -7.281  -0.845  -3.581  1.00  0.00     0.282 C 
ENDBRANCH  30  32
ENDBRANCH  29  30
ENDBRANCH  22  24
ENDBRANCH   1  20
TORSDOF 8
