REMARK  Name = *****
REMARK  2 active torsions:
REMARK  status: ('A' for Active; 'I' for Inactive)
REMARK    1  A    between atoms: C_5  and  C_8
REMARK    2  A    between atoms: C_14  and  C_16
REMARK                            x       y       z     vdW  Elec       q    Type
REMARK                         _______ _______ _______ _____ _____    ______ ____
ROOT
ATOM      1  C   UNL A   1       4.635  -0.061   0.390  0.00  0.00    +0.249 C 
ATOM      2  O   UNL A   1       5.103   0.886   1.019  0.00  0.00    -0.270 OA
ATOM      3  N   UNL A   1       5.386  -1.084  -0.155  0.00  0.00    -0.265 N 
ATOM      4  C   UNL A   1       6.743  -1.174  -0.006  0.00  0.00    +0.147 A 
ATOM      5  N   UNL A   1       7.459  -1.806  -0.940  0.00  0.00    -0.158 NA
ATOM      6  N   UNL A   1       8.735  -1.590  -0.571  0.00  0.00    -0.280 N 
ATOM      7  C   UNL A   1       8.853  -1.019   0.670  0.00  0.00    +0.035 A 
ATOM      8  C   UNL A   1       7.566  -0.710   1.049  0.00  0.00    +0.068 A 
ATOM      9  C   UNL A   1      10.156  -0.819   1.337  0.00  0.00    +0.065 C 
ATOM     10  H   UNL A   1       5.030  -1.694  -0.868  0.00  0.00    +0.157 HD
ATOM     11  H   UNL A   1       9.470  -1.861  -1.208  0.00  0.00    +0.189 HD
ENDROOT
BRANCH   1  16
ATOM     12 BR   UNL A   1      -1.528  -0.252  -0.024  0.00  0.00    -0.050 Br
ATOM     13  C   UNL A   1       0.357  -0.175   0.035  0.00  0.00    +0.018 A 
ATOM     14  C   UNL A   1       1.114  -1.049  -0.746  0.00  0.00    +0.016 A 
ATOM     15  C   UNL A   1       2.513  -1.022  -0.676  0.00  0.00    +0.014 A 
ATOM     16  C   UNL A   1       3.154  -0.117   0.181  0.00  0.00    +0.037 A 
ATOM     17  C   UNL A   1       2.377   0.774   0.937  0.00  0.00    +0.014 A 
ATOM     18  C   UNL A   1       0.984   0.747   0.867  0.00  0.00    +0.016 A 
ENDBRANCH   1  16
TORSDOF 1
