REMARK  Name = *****
REMARK  6 active torsions:
REMARK  status: ('A' for Active; 'I' for Inactive)
REMARK    1  A    between atoms: N_1  and  C_3
REMARK    2  A    between atoms: C_7  and  C_9
REMARK    3  A    between atoms: N_11  and  C_20
REMARK    4  A    between atoms: C_20  and  C_21
REMARK    5  A    between atoms: N_23  and  C_24
REMARK    6  A    between atoms: C_24  and  C_25
REMARK                            x       y       z     vdW  Elec       q    Type
REMARK                         _______ _______ _______ _____ _____    ______ ____
ROOT
ATOM      1  C   UNL A   1      -3.076  -2.509  -2.513  0.00  0.00    +0.099 A 
ATOM      2  N   UNL A   1      -3.657  -3.237  -1.587  0.00  0.00    -0.167 NA
ATOM      3  N   UNL A   1      -4.104  -4.475  -2.040  0.00  0.00    -0.220 N 
ATOM      4  C   UNL A   1      -3.536  -5.006  -3.187  0.00  0.00    +0.276 A 
ATOM      5  O   UNL A   1      -3.108  -6.135  -3.363  0.00  0.00    -0.266 OA
ATOM      6  C   UNL A   1      -3.709  -4.051  -4.269  0.00  0.00    +0.050 A 
ATOM      7  C   UNL A   1      -3.480  -2.721  -3.933  0.00  0.00    +0.015 A 
ATOM      8  C   UNL A   1      -3.954  -1.713  -4.769  0.00  0.00    +0.011 A 
ATOM      9  C   UNL A   1      -4.709  -2.074  -5.897  0.00  0.00    +0.001 A 
ATOM     10  C   UNL A   1      -4.984  -3.420  -6.184  0.00  0.00    +0.001 A 
ATOM     11  C   UNL A   1      -4.464  -4.423  -5.377  0.00  0.00    +0.014 A 
ENDROOT
BRANCH   1  16
ATOM     12  C   UNL A   1       0.174  -0.549  -2.624  0.00  0.00    +0.076 A 
ATOM     13  C   UNL A   1       0.356  -0.233  -1.273  0.00  0.00    +0.028 A 
ATOM     14  C   UNL A   1      -0.611  -0.621  -0.348  0.00  0.00    +0.003 A 
ATOM     15  C   UNL A   1      -1.753  -1.305  -0.773  0.00  0.00    +0.010 A 
ATOM     16  C   UNL A   1      -1.960  -1.592  -2.133  0.00  0.00    +0.005 A 
ATOM     17  C   UNL A   1      -0.975  -1.228  -3.062  0.00  0.00    +0.038 A 
BRANCH  12  18
ATOM     18  N   UNL A   1       1.239  -0.219  -3.579  0.00  0.00    -0.187 N 
ATOM     19  O   UNL A   1       2.217   0.410  -3.167  0.00  0.00    -0.173 OA
ATOM     20  O   UNL A   1       1.091  -0.596  -4.752  0.00  0.00    -0.777 OA
ENDBRANCH  12  18
ENDBRANCH   1  16
BRANCH   3  21
ATOM     21  C   UNL A   1      -5.265  -5.151  -1.501  0.00  0.00    +0.242 C 
BRANCH  21  22
ATOM     22  C   UNL A   1      -6.587  -4.572  -2.040  0.00  0.00    +0.235 C 
ATOM     23  O   UNL A   1      -7.486  -5.296  -2.469  0.00  0.00    -0.274 OA
ATOM     24  N   UNL A   1      -6.764  -3.213  -1.873  0.00  0.00    -0.311 N 
ATOM     25  H   UNL A   1      -5.923  -2.649  -1.776  0.00  0.00    +0.149 HD
BRANCH  24  26
ATOM     26  C   UNL A   1      -8.002  -2.566  -2.286  0.00  0.00    +0.135 C 
BRANCH  26  27
ATOM     27  C   UNL A   1      -8.079  -1.099  -1.853  0.00  0.00    +0.135 C 
ATOM     28  O   UNL A   1      -7.073  -0.318  -2.536  0.00  0.00    -0.375 OA
ATOM     29  C   UNL A   1      -7.661   0.927  -2.940  0.00  0.00    +0.160 C 
ATOM     30  C   UNL A   1      -9.035   1.003  -2.311  0.00  0.00    +0.030 C 
ATOM     31  C   UNL A   1      -9.415  -0.451  -2.187  0.00  0.00    +0.035 C 
ENDBRANCH  26  27
ENDBRANCH  24  26
ENDBRANCH  21  22
ENDBRANCH   3  21
TORSDOF 6
