REMARK  Name = *****
REMARK  2 active torsions:
REMARK  status: ('A' for Active; 'I' for Inactive)
REMARK    1  A    between atoms: C_11  and  C_13
REMARK    2  A    between atoms: C_13  and  N_14
REMARK                            x       y       z     vdW  Elec       q    Type
REMARK                         _______ _______ _______ _____ _____    ______ ____
ROOT
ATOM      1  N   UNL A   1      -1.167   1.462  -0.179  0.00  0.00    -0.270 N 
ATOM      2  C   UNL A   1       0.071   0.724  -0.074  0.00  0.00    +0.040 A 
ATOM      3  C   UNL A   1       1.322   1.361  -0.043  0.00  0.00    +0.024 A 
ATOM      4  C   UNL A   1       2.512   0.628   0.034  0.00  0.00    +0.002 A 
ATOM      5  C   UNL A   1       2.476  -0.758   0.086  0.00  0.00    +0.000 A 
ATOM      6  C   UNL A   1       1.248  -1.411   0.087  0.00  0.00    +0.005 A 
ATOM      7  C   UNL A   1       0.044  -0.685   0.012  0.00  0.00    -0.026 A 
ATOM      8  C   UNL A   1      -1.241  -1.472   0.042  0.00  0.00    +0.038 C 
ATOM      9  C   UNL A   1      -2.450  -0.642  -0.343  0.00  0.00    +0.024 C 
ATOM     10  C   UNL A   1      -2.353   0.727   0.299  0.00  0.00    +0.114 C 
ATOM     11  C   UNL A   1      -1.229   2.741  -0.759  0.00  0.00    +0.241 C 
ATOM     12  O   UNL A   1      -0.257   3.336  -1.244  0.00  0.00    -0.273 OA
ENDROOT
BRANCH  11  13
ATOM     13  C   UNL A   1      -2.571   3.438  -0.854  0.00  0.00    +0.239 C 
BRANCH  13  14
ATOM     14  N   UNL A   1      -3.223   3.136  -2.115  0.00  0.00    -0.261 N 
ATOM     15  C   UNL A   1      -3.116   3.841  -3.284  0.00  0.00    +0.111 A 
ATOM     16  C   UNL A   1      -3.885   3.175  -4.211  0.00  0.00    +0.070 A 
ATOM     17  C   UNL A   1      -4.438   2.088  -3.499  0.00  0.00    +0.185 A 
ATOM     18  N   UNL A   1      -4.068   2.086  -2.205  0.00  0.00    -0.150 NA
ATOM     19  N   UNL A   1      -5.307   1.034  -3.995  0.00  0.00    -0.166 N 
ATOM     20  O   UNL A   1      -5.603   1.091  -5.198  0.00  0.00    -0.171 OA
ATOM     21  O   UNL A   1      -5.687   0.158  -3.203  0.00  0.00    -0.776 OA
ENDBRANCH  13  14
ENDBRANCH  11  13
TORSDOF 2
