REMARK  Name = *****
REMARK  7 active torsions:
REMARK  status: ('A' for Active; 'I' for Inactive)
REMARK    1  A    between atoms: C_7  and  C_9
REMARK    2  A    between atoms: C_14  and  N_15
REMARK    3  A    between atoms: C_16  and  C_18
REMARK    4  A    between atoms: C_18  and  N_19
REMARK    5  A    between atoms: N_19  and  C_20
REMARK    6  A    between atoms: N_19  and  S_27
REMARK    7  A    between atoms: S_27  and  C_30
REMARK                            x       y       z     vdW  Elec       q    Type
REMARK                         _______ _______ _______ _____ _____    ______ ____
ROOT
ATOM      1  N   UNL A   1      -4.890   0.646   0.176  0.00  0.00    -0.283 N 
ATOM      2  C   UNL A   1      -4.716  -0.727   0.298  0.00  0.00    +0.236 C 
ATOM      3  O   UNL A   1      -3.945  -1.398  -0.384  0.00  0.00    -0.274 OA
ATOM      4  H   UNL A   1      -5.175   1.137   1.015  0.00  0.00    +0.155 HD
ENDROOT
BRANCH   1  10
ATOM      5  C   UNL A   1      -4.220   1.088  -2.207  0.00  0.00    +0.058 A 
ATOM      6  C   UNL A   1      -3.512   1.927  -3.091  0.00  0.00    +0.015 A 
ATOM      7  C   UNL A   1      -2.949   3.123  -2.648  0.00  0.00    +0.001 A 
ATOM      8  C   UNL A   1      -3.108   3.507  -1.321  0.00  0.00    +0.002 A 
ATOM      9  C   UNL A   1      -3.789   2.673  -0.429  0.00  0.00    +0.024 A 
ATOM     10  C   UNL A   1      -4.294   1.435  -0.842  0.00  0.00    +0.046 A 
BRANCH   5  17
ATOM     11  N   UNL A   1      -6.301  -0.252  -2.628  0.00  0.00    -0.293 N 
ATOM     12  C   UNL A   1      -6.938  -1.446  -3.192  0.00  0.00    +0.136 C 
ATOM     13  C   UNL A   1      -8.340  -1.126  -3.723  0.00  0.00    +0.178 C 
ATOM     14  O   UNL A   1      -9.149  -0.507  -2.708  0.00  0.00    -0.377 OA
ATOM     15  C   UNL A   1      -8.561   0.732  -2.299  0.00  0.00    +0.178 C 
ATOM     16  C   UNL A   1      -7.163   0.518  -1.729  0.00  0.00    +0.136 C 
ATOM     17  C   UNL A   1      -4.938  -0.043  -2.865  0.00  0.00    +0.248 C 
ATOM     18  O   UNL A   1      -4.317  -0.697  -3.704  0.00  0.00    -0.270 OA
ENDBRANCH   5  17
ENDBRANCH   1  10
BRANCH   2  19
ATOM     19  C   UNL A   1      -5.558  -1.360   1.401  0.00  0.00    +0.227 C 
BRANCH  19  20
ATOM     20  N   UNL A   1      -4.727  -1.773   2.566  0.00  0.00    -0.199 N 
BRANCH  20  21
ATOM     21  C   UNL A   1      -4.065  -0.711   3.282  0.00  0.00    +0.051 A 
ATOM     22  C   UNL A   1      -2.708  -0.848   3.580  0.00  0.00    +0.026 A 
ATOM     23  C   UNL A   1      -2.020   0.192   4.211  0.00  0.00    +0.022 A 
ATOM     24  C   UNL A   1      -2.697   1.362   4.550  0.00  0.00    +0.041 A 
ATOM     25  C   UNL A   1      -4.066   1.478   4.318  0.00  0.00    +0.022 A 
ATOM     26  C   UNL A   1      -4.757   0.428   3.710  0.00  0.00    +0.026 A 
ATOM     27 CL   UNL A   1      -1.840   2.676   5.254  0.00  0.00    -0.084 Cl
ENDBRANCH  20  21
BRANCH  20  28
ATOM     28  S   UNL A   1      -5.430  -2.969   3.569  0.00  0.00    +0.043 S 
ATOM     29  O   UNL A   1      -4.563  -3.204   4.699  0.00  0.00    -0.155 OA
ATOM     30  O   UNL A   1      -6.816  -2.591   3.752  0.00  0.00    -0.155 OA
ATOM     31  C   UNL A   1      -5.363  -4.420   2.536  0.00  0.00    +0.218 C 
ENDBRANCH  20  28
ENDBRANCH  19  20
ENDBRANCH   2  19
TORSDOF 6
