REMARK  Name = *****
REMARK  10 active torsions:
REMARK  status: ('A' for Active; 'I' for Inactive)
REMARK    1  A    between atoms: N_4  and  N_5
REMARK    2  A    between atoms: N_5  and  C_6
REMARK    3  A    between atoms: C_9  and  S_10
REMARK    4  A    between atoms: S_10  and  N_13
REMARK    5  A    between atoms: C_21  and  C_23
REMARK    6  A    between atoms: C_23  and  O_25
REMARK    7  A    between atoms: O_25  and  C_26
REMARK    8  A    between atoms: C_26  and  C_27
REMARK    9  A    between atoms: C_27  and  C_28
REMARK   10  A    between atoms: C_27  and  C_29
REMARK                            x       y       z     vdW  Elec       q    Type
REMARK                         _______ _______ _______ _____ _____    ______ ____
ROOT
ATOM      1  O   UNL A   1      -2.984  -0.610   0.050  0.00  0.00    -0.268 OA
ATOM      2  C   UNL A   1      -1.786  -0.439   0.022  0.00  0.00    +0.269 C 
ATOM      3  C   UNL A   1      -1.075   0.922   0.001  0.00  0.00    +0.152 C 
ATOM      4  N   UNL A   1      -1.606   2.103   0.057  0.00  0.00    -0.177 NA
ATOM      5  C   UNL A   1       0.356   0.632  -0.049  0.00  0.00    +0.029 A 
ATOM      6  C   UNL A   1       0.464  -0.755  -0.003  0.00  0.00    +0.043 A 
ATOM      7  N   UNL A   1      -0.774  -1.375   0.021  0.00  0.00    -0.280 N 
ATOM      8  C   UNL A   1       1.700  -1.377   0.030  0.00  0.00    +0.025 A 
ATOM      9  C   UNL A   1       2.831  -0.554   0.015  0.00  0.00    +0.017 A 
ATOM     10  C   UNL A   1       2.721   0.861  -0.052  0.00  0.00    +0.060 A 
ATOM     11  C   UNL A   1       1.457   1.470  -0.076  0.00  0.00    +0.027 A 
ATOM     12  H   UNL A   1      -0.947  -2.369   0.052  0.00  0.00    +0.155 HD
ENDROOT
BRANCH   4  13
ATOM     13  N   UNL A   1      -2.955   2.145   0.167  0.00  0.00    -0.237 N 
ATOM     14  H   UNL A   1      -3.526   1.297   0.243  0.00  0.00    +0.174 HD
BRANCH  13  15
ATOM     15  C   UNL A   1      -3.616   3.376   0.277  0.00  0.00    +0.048 A 
ATOM     16  C   UNL A   1      -2.924   4.600   0.147  0.00  0.00    +0.026 A 
ATOM     17  C   UNL A   1      -3.598   5.814   0.266  0.00  0.00    +0.030 A 
ATOM     18  C   UNL A   1      -4.965   5.813   0.555  0.00  0.00    +0.105 A 
ATOM     19  C   UNL A   1      -5.668   4.622   0.692  0.00  0.00    +0.030 A 
ATOM     20  C   UNL A   1      -4.992   3.410   0.554  0.00  0.00    +0.026 A 
BRANCH  18  21
ATOM     21  S   UNL A   1      -5.821   7.343   0.758  0.00  0.00    +0.056 S 
ATOM     22  O   UNL A   1      -7.030   7.107   1.524  0.00  0.00    -0.153 OA
ATOM     23  O   UNL A   1      -4.870   8.377   1.111  0.00  0.00    -0.153 OA
BRANCH  21  24
ATOM     24  N   UNL A   1      -6.274   7.608  -0.823  0.00  0.00    -0.203 NA
ATOM     25  H   UNL A   1      -7.255   7.459  -1.035  0.00  0.00    +0.144 HD
ATOM     26  H   UNL A   1      -5.740   8.310  -1.328  0.00  0.00    +0.144 HD
ENDBRANCH  21  24
ENDBRANCH  18  21
ENDBRANCH  13  15
ENDBRANCH   4  13
BRANCH  10  27
ATOM     27  C   UNL A   1       3.996   1.636  -0.020  0.00  0.00    +0.339 C 
ATOM     28  O   UNL A   1       5.088   1.103   0.052  0.00  0.00    -0.245 OA
BRANCH  27  29
ATOM     29  O   UNL A   1       3.751   2.970   0.026  0.00  0.00    -0.461 OA
BRANCH  29  30
ATOM     30  C   UNL A   1       4.805   3.765   0.589  0.00  0.00    +0.235 C 
BRANCH  30  31
ATOM     31  C   UNL A   1       5.448   4.712  -0.429  0.00  0.00    +0.021 C 
ATOM     32  C   UNL A   1       4.425   5.669  -1.039  0.00  0.00    +0.010 C 
ATOM     33  C   UNL A   1       6.575   5.510   0.236  0.00  0.00    +0.010 C 
ENDBRANCH  30  31
ENDBRANCH  29  30
ENDBRANCH  27  29
ENDBRANCH  10  27
TORSDOF 8
