REMARK  Name = *****
REMARK  8 active torsions:
REMARK  status: ('A' for Active; 'I' for Inactive)
REMARK    1  A    between atoms: N_4  and  N_5
REMARK    2  A    between atoms: N_5  and  C_6
REMARK    3  A    between atoms: C_9  and  S_10
REMARK    4  A    between atoms: S_10  and  N_13
REMARK    5  A    between atoms: C_21  and  C_23
REMARK    6  A    between atoms: N_25  and  C_26
REMARK    7  A    between atoms: C_26  and  C_27
REMARK    8  A    between atoms: C_27  and  C_28
REMARK                            x       y       z     vdW  Elec       q    Type
REMARK                         _______ _______ _______ _____ _____    ______ ____
ROOT
ATOM      1  O   UNL A   1      -3.010  -0.652   0.022  0.00  0.00    -0.268 OA
ATOM      2  C   UNL A   1      -1.806  -0.474  -0.003  0.00  0.00    +0.269 C 
ATOM      3  C   UNL A   1      -1.107   0.889  -0.014  0.00  0.00    +0.152 C 
ATOM      4  N   UNL A   1      -1.629   2.067   0.052  0.00  0.00    -0.177 NA
ATOM      5  C   UNL A   1       0.323   0.599  -0.054  0.00  0.00    +0.029 A 
ATOM      6  C   UNL A   1       0.451  -0.789  -0.017  0.00  0.00    +0.043 A 
ATOM      7  N   UNL A   1      -0.794  -1.411  -0.004  0.00  0.00    -0.280 N 
ATOM      8  C   UNL A   1       1.686  -1.389   0.027  0.00  0.00    +0.025 A 
ATOM      9  C   UNL A   1       2.807  -0.546   0.032  0.00  0.00    +0.015 A 
ATOM     10  C   UNL A   1       2.681   0.871  -0.019  0.00  0.00    +0.037 A 
ATOM     11  C   UNL A   1       1.409   1.454  -0.060  0.00  0.00    +0.025 A 
ATOM     12  H   UNL A   1      -0.962  -2.407   0.021  0.00  0.00    +0.155 HD
ENDROOT
BRANCH  10  13
ATOM     13  C   UNL A   1       3.941   1.671  -0.020  0.00  0.00    +0.244 C 
ATOM     14  O   UNL A   1       5.030   1.092   0.044  0.00  0.00    -0.270 OA
ATOM     15  N   UNL A   1       3.845   3.042  -0.102  0.00  0.00    -0.311 N 
ATOM     16  H   UNL A   1       2.954   3.528  -0.098  0.00  0.00    +0.149 HD
BRANCH  15  17
ATOM     17  C   UNL A   1       5.038   3.869  -0.069  0.00  0.00    +0.111 C 
BRANCH  17  18
ATOM     18  C   UNL A   1       4.753   5.368  -0.148  0.00  0.00    +0.075 C 
BRANCH  18  19
ATOM     19  C   UNL A   1       3.944   5.867   1.000  0.00  0.00    +0.060 A 
ATOM     20  C   UNL A   1       4.367   6.350   2.220  0.00  0.00    +0.107 A 
ATOM     21  N   UNL A   1       3.222   6.670   2.898  0.00  0.00    -0.351 N 
ATOM     22  C   UNL A   1       2.166   6.374   2.082  0.00  0.00    +0.196 A 
ATOM     23  N   UNL A   1       2.569   5.880   0.933  0.00  0.00    -0.241 NA
ATOM     24  H   UNL A   1       3.160   7.053   3.831  0.00  0.00    +0.166 HD
ENDBRANCH  18  19
ENDBRANCH  17  18
ENDBRANCH  15  17
ENDBRANCH  10  13
BRANCH   4  25
ATOM     25  N   UNL A   1      -2.978   2.125   0.168  0.00  0.00    -0.237 N 
ATOM     26  H   UNL A   1      -3.552   1.280   0.243  0.00  0.00    +0.174 HD
BRANCH  25  27
ATOM     27  C   UNL A   1      -3.623   3.364   0.275  0.00  0.00    +0.048 A 
ATOM     28  C   UNL A   1      -2.933   4.578   0.142  0.00  0.00    +0.026 A 
ATOM     29  C   UNL A   1      -3.590   5.806   0.258  0.00  0.00    +0.030 A 
ATOM     30  C   UNL A   1      -4.962   5.814   0.524  0.00  0.00    +0.105 A 
ATOM     31  C   UNL A   1      -5.673   4.627   0.662  0.00  0.00    +0.030 A 
ATOM     32  C   UNL A   1      -5.002   3.406   0.535  0.00  0.00    +0.026 A 
BRANCH  30  33
ATOM     33  S   UNL A   1      -5.806   7.354   0.745  0.00  0.00    +0.056 S 
ATOM     34  O   UNL A   1      -7.022   7.109   1.495  0.00  0.00    -0.153 OA
ATOM     35  O   UNL A   1      -4.853   8.364   1.127  0.00  0.00    -0.153 OA
BRANCH  33  36
ATOM     36  N   UNL A   1      -6.251   7.644  -0.837  0.00  0.00    -0.203 NA
ATOM     37  H   UNL A   1      -7.218   7.466  -1.082  0.00  0.00    +0.144 HD
ATOM     38  H   UNL A   1      -5.690   8.314  -1.352  0.00  0.00    +0.144 HD
ENDBRANCH  33  36
ENDBRANCH  30  33
ENDBRANCH  25  27
ENDBRANCH   4  25
TORSDOF 8
