REMARK  Name = *****
REMARK  10 active torsions:
REMARK  status: ('A' for Active; 'I' for Inactive)
REMARK    1  A    between atoms: C_1  and  N_2
REMARK    2  A    between atoms: C_3  and  S_4
REMARK    3  A    between atoms: S_4  and  C_5
REMARK    4  A    between atoms: C_5  and  C_6
REMARK    5  A    between atoms: N_8  and  C_9
REMARK    6  A    between atoms: C_13  and  O_14
REMARK    7  A    between atoms: O_14  and  C_15
REMARK    8  A    between atoms: C_17  and  O_18
REMARK    9  A    between atoms: O_18  and  C_19
REMARK   10  A    between atoms: C_22  and  C_23
REMARK                            x       y       z     vdW  Elec       q    Type
REMARK                         _______ _______ _______ _____ _____    ______ ____
ROOT
ATOM      1  C   UNL A   1       2.655  -4.338  -0.221  0.00  0.00    +0.228 C 
ATOM      2  O   UNL A   1       3.453  -4.711  -1.080  0.00  0.00    -0.275 OA
ATOM      3  N   UNL A   1       2.089  -5.170   0.740  0.00  0.00    -0.282 N 
ATOM      4  H   UNL A   1       1.235  -4.842   1.171  0.00  0.00    +0.155 HD
ENDROOT
BRANCH   3   5
ATOM      5  C   UNL A   1       2.351  -6.557   0.790  0.00  0.00    +0.077 A 
ATOM      6  C   UNL A   1       3.684  -6.992   0.751  0.00  0.00    +0.050 A 
ATOM      7  C   UNL A   1       4.029  -8.349   0.869  0.00  0.00    +0.085 A 
ATOM      8 CL   UNL A   1       5.728  -8.665   0.907  0.00  0.00    -0.080 Cl
ATOM      9  C   UNL A   1       3.021  -9.311   0.985  0.00  0.00    +0.142 A 
ATOM     10  C   UNL A   1       1.688  -8.864   1.039  0.00  0.00    +0.094 A 
ATOM     11  C   UNL A   1       1.340  -7.507   0.963  0.00  0.00    +0.145 A 
BRANCH   9  12
ATOM     12  O   UNL A   1       3.093 -10.673   1.076  0.00  0.00    -0.493 OA
ATOM     13  C   UNL A   1       4.343 -11.339   1.025  0.00  0.00    +0.277 C 
ENDBRANCH   9  12
BRANCH  11  14
ATOM     14  O   UNL A   1      -0.001  -7.272   1.112  0.00  0.00    -0.493 OA
ATOM     15  C   UNL A   1      -0.598  -6.325   0.236  0.00  0.00    +0.277 C 
ENDBRANCH  11  14
ENDBRANCH   3   5
BRANCH   1  16
ATOM     16  C   UNL A   1       2.215  -2.883  -0.138  0.00  0.00    +0.173 C 
BRANCH  16  17
ATOM     17  S   UNL A   1       0.410  -2.760  -0.303  0.00  0.00    -0.077 S 
BRANCH  17  20
ATOM     18  C   UNL A   1      -2.024  -0.892  -1.289  0.00  0.00    +0.153 C 
ATOM     19  N   UNL A   1      -0.967  -0.398  -0.446  0.00  0.00    -0.305 N 
ATOM     20  C   UNL A   1       0.156  -1.073  -0.037  0.00  0.00    +0.192 A 
ATOM     21  N   UNL A   1       0.959  -0.256   0.593  0.00  0.00    -0.122 NA
ATOM     22  N   UNL A   1       0.354   0.979   0.623  0.00  0.00    -0.128 NA
ATOM     23  C   UNL A   1      -0.826   0.897   0.027  0.00  0.00    +0.165 A 
BRANCH  23  24
ATOM     24  C   UNL A   1      -1.764   2.017  -0.146  0.00  0.00    +0.019 A 
ATOM     25  C   UNL A   1      -1.261   3.317  -0.324  0.00  0.00    +0.012 A 
ATOM     26  C   UNL A   1      -2.116   4.407  -0.518  0.00  0.00    +0.001 A 
ATOM     27  C   UNL A   1      -3.490   4.215  -0.534  0.00  0.00    +0.000 A 
ATOM     28  C   UNL A   1      -4.013   2.939  -0.327  0.00  0.00    +0.001 A 
ATOM     29  C   UNL A   1      -3.157   1.854  -0.113  0.00  0.00    +0.012 A 
ENDBRANCH  23  24
ENDBRANCH  17  20
ENDBRANCH  16  17
ENDBRANCH   1  16
TORSDOF 7
