REMARK  Name = *****
REMARK  10 active torsions:
REMARK  status: ('A' for Active; 'I' for Inactive)
REMARK    1  A    between atoms: O_1  and  C_2
REMARK    2  A    between atoms: O_1  and  C_30
REMARK    3  A    between atoms: C_9  and  S_11
REMARK    4  A    between atoms: S_11  and  C_12
REMARK    5  A    between atoms: C_12  and  C_13
REMARK    6  A    between atoms: N_15  and  C_16
REMARK    7  A    between atoms: C_17  and  C_29
REMARK    8  A    between atoms: N_18  and  C_28
REMARK    9  A    between atoms: N_19  and  C_22
REMARK   10  A    between atoms: C_30  and  C_31
REMARK                            x       y       z     vdW  Elec       q    Type
REMARK                         _______ _______ _______ _____ _____    ______ ____
ROOT
ATOM      1  C   UNL A   1      -6.043   6.481   3.672  0.00  0.00    +0.228 C 
ATOM      2  O   UNL A   1      -6.037   7.399   2.849  0.00  0.00    -0.275 OA
ATOM      3  N   UNL A   1      -6.857   6.477   4.792  0.00  0.00    -0.279 N 
ATOM      4  H   UNL A   1      -6.481   6.059   5.636  0.00  0.00    +0.155 HD
ENDROOT
BRANCH   3   5
ATOM      5  C   UNL A   1      -7.916   7.333   4.968  0.00  0.00    +0.121 A 
ATOM      6  C   UNL A   1      -8.856   7.766   4.116  0.00  0.00    +0.059 A 
ATOM      7  N   UNL A   1      -9.794   8.623   4.722  0.00  0.00    -0.282 N 
ATOM      8  N   UNL A   1      -9.312   8.852   6.053  0.00  0.00    -0.216 N 
ATOM      9  C   UNL A   1      -8.206   8.013   6.274  0.00  0.00    +0.293 A 
ATOM     10  O   UNL A   1      -7.540   7.808   7.282  0.00  0.00    -0.264 OA
ATOM     11  C   UNL A   1     -10.418   9.700   3.962  0.00  0.00    +0.171 C 
ATOM     12  C   UNL A   1      -9.020   7.362   2.690  0.00  0.00    +0.067 C 
BRANCH   8  13
ATOM     13  C   UNL A   1      -9.930   9.712   7.001  0.00  0.00    +0.067 A 
ATOM     14  C   UNL A   1      -9.214  10.185   8.112  0.00  0.00    +0.028 A 
ATOM     15  C   UNL A   1      -9.794  11.076   9.028  0.00  0.00    +0.002 A 
ATOM     16  C   UNL A   1     -11.104  11.509   8.852  0.00  0.00    +0.000 A 
ATOM     17  C   UNL A   1     -11.839  11.035   7.774  0.00  0.00    +0.002 A 
ATOM     18  C   UNL A   1     -11.261  10.133   6.873  0.00  0.00    +0.028 A 
ENDBRANCH   8  13
ENDBRANCH   3   5
BRANCH   1  19
ATOM     19  C   UNL A   1      -5.013   5.365   3.575  0.00  0.00    +0.172 C 
BRANCH  19  20
ATOM     20  S   UNL A   1      -5.624   3.734   4.085  0.00  0.00    -0.089 S 
BRANCH  20  28
ATOM     21  C   UNL A   1     -10.624   2.768   0.064  0.00  0.00    +0.122 A 
ATOM     22  C   UNL A   1     -10.123   4.003  -0.341  0.00  0.00    +0.048 A 
ATOM     23  C   UNL A   1      -8.979   4.546   0.259  0.00  0.00    +0.032 A 
ATOM     24  C   UNL A   1      -8.328   3.851   1.294  0.00  0.00    +0.080 A 
ATOM     25  C   UNL A   1      -8.847   2.622   1.702  0.00  0.00    +0.043 A 
ATOM     26  C   UNL A   1      -9.985   2.058   1.093  0.00  0.00    +0.062 A 
ATOM     27  S   UNL A   1      -7.882   2.025   3.001  0.00  0.00    -0.061 S 
ATOM     28  C   UNL A   1      -6.911   3.435   2.932  0.00  0.00    +0.136 A 
ATOM     29  N   UNL A   1      -7.207   4.287   1.982  0.00  0.00    -0.233 NA
BRANCH  21  30
ATOM     30  O   UNL A   1     -11.731   2.154  -0.466  0.00  0.00    -0.492 OA
BRANCH  30  31
ATOM     31  C   UNL A   1     -12.440   2.880  -1.476  0.00  0.00    +0.226 C 
ATOM     32  C   UNL A   1     -13.639   2.061  -1.928  0.00  0.00    +0.048 C 
ENDBRANCH  30  31
ENDBRANCH  21  30
ENDBRANCH  20  28
ENDBRANCH  19  20
ENDBRANCH   1  19
TORSDOF 7
