REMARK  Name = *****
REMARK  2 active torsions:
REMARK  status: ('A' for Active; 'I' for Inactive)
REMARK    1  A    between atoms: C_5  and  C_8
REMARK    2  A    between atoms: C_14  and  C_16
REMARK                            x       y       z     vdW  Elec       q    Type
REMARK                         _______ _______ _______ _____ _____    ______ ____
ROOT
ATOM      1  C   UNL A   1       4.697  -0.010  -0.408  0.00  0.00    +0.249 C 
ATOM      2  O   UNL A   1       5.219   1.103  -0.407  0.00  0.00    -0.270 OA
ATOM      3  N   UNL A   1       5.372  -1.188  -0.190  0.00  0.00    -0.265 N 
ATOM      4  C   UNL A   1       6.711  -1.228   0.108  0.00  0.00    +0.147 A 
ATOM      5  N   UNL A   1       7.420  -2.307  -0.223  0.00  0.00    -0.158 NA
ATOM      6  N   UNL A   1       8.682  -1.957   0.068  0.00  0.00    -0.280 N 
ATOM      7  C   UNL A   1       8.784  -0.782   0.763  0.00  0.00    +0.041 A 
ATOM      8  C   UNL A   1       7.506  -0.267   0.773  0.00  0.00    +0.068 A 
ATOM      9  H   UNL A   1       5.004  -2.084  -0.461  0.00  0.00    +0.157 HD
ATOM     10  H   UNL A   1       9.432  -2.571  -0.228  0.00  0.00    +0.189 HD
ENDROOT
BRANCH   1  15
ATOM     11 BR   UNL A   1      -1.429  -0.093  -1.222  0.00  0.00    -0.050 Br
ATOM     12  C   UNL A   1       0.450  -0.093  -1.040  0.00  0.00    +0.018 A 
ATOM     13  C   UNL A   1       1.155  -1.294  -1.089  0.00  0.00    +0.016 A 
ATOM     14  C   UNL A   1       2.544  -1.302  -0.914  0.00  0.00    +0.014 A 
ATOM     15  C   UNL A   1       3.232  -0.102  -0.684  0.00  0.00    +0.037 A 
ATOM     16  C   UNL A   1       2.506   1.103  -0.677  0.00  0.00    +0.014 A 
ATOM     17  C   UNL A   1       1.123   1.109  -0.844  0.00  0.00    +0.016 A 
ENDBRANCH   1  15
BRANCH   7  18
ATOM     18  C   UNL A   1      10.075  -0.261   1.318  0.00  0.00    +0.037 C 
ATOM     19  C   UNL A   1      11.005   0.228   0.196  0.00  0.00    +0.010 C 
ATOM     20  C   UNL A   1      12.360   0.681   0.735  0.00  0.00    +0.001 C 
ATOM     21  C   UNL A   1      13.020  -0.412   1.568  0.00  0.00    +0.000 C 
ATOM     22  C   UNL A   1      12.118  -0.855   2.714  0.00  0.00    +0.001 C 
ATOM     23  C   UNL A   1      10.757  -1.319   2.204  0.00  0.00    +0.010 C 
ENDBRANCH   7  18
TORSDOF 2
