REMARK  Name = *****
REMARK  7 active torsions:
REMARK  status: ('A' for Active; 'I' for Inactive)
REMARK    1  A    between atoms: N_1  and  C_2
REMARK    2  A    between atoms: C_6  and  S_7
REMARK    3  A    between atoms: S_7  and  C_8
REMARK    4  A    between atoms: C_8  and  C_9
REMARK    5  A    between atoms: N_11  and  C_12
REMARK    6  A    between atoms: C_15  and  O_18
REMARK    7  A    between atoms: O_18  and  C_19
REMARK                            x       y       z     vdW  Elec       q    Type
REMARK                         _______ _______ _______ _____ _____    ______ ____
ROOT
ATOM      1  C   UNL A   1      -2.451  -4.523   0.011  0.00  0.00    +0.228 C 
ATOM      2  O   UNL A   1      -1.506  -5.256   0.292  0.00  0.00    -0.275 OA
ATOM      3  N   UNL A   1      -3.776  -4.915  -0.128  0.00  0.00    -0.285 N 
ATOM      4  H   UNL A   1      -4.404  -4.259  -0.590  0.00  0.00    +0.155 HD
ENDROOT
BRANCH   3   5
ATOM      5  C   UNL A   1      -4.276  -6.222   0.055  0.00  0.00    +0.034 A 
ATOM      6  C   UNL A   1      -3.570  -7.220   0.727  0.00  0.00    +0.027 A 
ATOM      7  C   UNL A   1      -4.079  -8.519   0.821  0.00  0.00    +0.047 A 
ATOM      8  C   UNL A   1      -5.307  -8.836   0.246  0.00  0.00    +0.120 A 
ATOM      9  C   UNL A   1      -6.041  -7.828  -0.382  0.00  0.00    +0.047 A 
ATOM     10  C   UNL A   1      -5.535  -6.524  -0.471  0.00  0.00    +0.027 A 
BRANCH   8  11
ATOM     11  O   UNL A   1      -5.884 -10.075   0.233  0.00  0.00    -0.495 OA
ATOM     12  C   UNL A   1      -5.116 -11.133   0.801  0.00  0.00    +0.277 C 
ENDBRANCH   8  11
ENDBRANCH   3   5
BRANCH   1  13
ATOM     13  C   UNL A   1      -2.218  -3.049  -0.275  0.00  0.00    +0.173 C 
BRANCH  13  14
ATOM     14  S   UNL A   1      -1.737  -2.815  -2.013  0.00  0.00    -0.075 S 
BRANCH  14  20
ATOM     15  N   UNL A   1      -3.340  -3.552  -4.103  0.00  0.00    -0.223 N 
ATOM     16  C   UNL A   1      -2.317  -3.817  -5.075  0.00  0.00    +0.177 C 
ATOM     17  N   UNL A   1      -4.640  -3.741  -4.398  0.00  0.00    -0.043 NA
ATOM     18  N   UNL A   1      -5.298  -3.444  -3.285  0.00  0.00    -0.022 NA
ATOM     19  N   UNL A   1      -4.433  -3.072  -2.283  0.00  0.00    -0.102 NA
ATOM     20  C   UNL A   1      -3.231  -3.139  -2.809  0.00  0.00    +0.209 A 
ENDBRANCH  14  20
ENDBRANCH  13  14
ENDBRANCH   1  13
TORSDOF 5
