REMARK  Name = *****
REMARK  9 active torsions:
REMARK  status: ('A' for Active; 'I' for Inactive)
REMARK    1  A    between atoms: C_2  and  C_3
REMARK    2  A    between atoms: C_2  and  C_4
REMARK    3  A    between atoms: C_7  and  O_20
REMARK    4  A    between atoms: C_8  and  C_9
REMARK    5  A    between atoms: C_9  and  C_10
REMARK    6  A    between atoms: C_11  and  O_12
REMARK    7  A    between atoms: C_17  and  O_18
REMARK    8  A    between atoms: O_20  and  C_21
REMARK    9  A    between atoms: C_21  and  C_22
REMARK                            x       y       z     vdW  Elec       q    Type
REMARK                         _______ _______ _______ _____ _____    ______ ____
ROOT
ATOM      1  C   UNL A   1       6.257   2.901   0.015  0.00  0.00    +0.084 C 
ENDROOT
BRANCH   1   2
ATOM      2  C   UNL A   1       7.342   2.118   0.702  0.00  0.00    +0.080 A 
ATOM      3  C   UNL A   1       7.757   0.848   0.365  0.00  0.00    +0.224 A 
ATOM      4  N   UNL A   1       8.664   0.138   1.055  0.00  0.00    -0.179 NA
ATOM      5  C   UNL A   1       9.193   0.717   2.128  0.00  0.00    +0.219 A 
ATOM      6  N   UNL A   1      10.055  -0.035   2.900  0.00  0.00    -0.327 N 
ATOM      7  N   UNL A   1       8.897   1.943   2.550  0.00  0.00    -0.179 NA
ATOM      8  C   UNL A   1       7.995   2.600   1.813  0.00  0.00    +0.224 A 
ATOM      9  H   UNL A   1       9.884  -1.015   2.715  0.00  0.00    +0.145 HD
ATOM     10  H   UNL A   1       9.994   0.262   3.864  0.00  0.00    +0.145 HD
BRANCH   3  11
ATOM     11  O   UNL A   1       7.274   0.160  -0.710  0.00  0.00    -0.492 OA
ATOM     12  H   UNL A   1       6.718   0.738  -1.243  0.00  0.00    +0.294 HD
ENDBRANCH   3  11
BRANCH   8  13
ATOM     13  O   UNL A   1       7.776   3.856   2.273  0.00  0.00    -0.492 OA
ATOM     14  H   UNL A   1       8.375   3.870   3.041  0.00  0.00    +0.294 HD
ENDBRANCH   8  13
ENDBRANCH   1   2
BRANCH   1  19
ATOM     15  C   UNL A   1       2.930   1.078   0.510  0.00  0.00    +0.018 A 
ATOM     16  C   UNL A   1       2.376   1.794   1.571  0.00  0.00    +0.015 A 
ATOM     17  C   UNL A   1       3.039   2.905   2.100  0.00  0.00    +0.046 A 
ATOM     18  C   UNL A   1       4.278   3.307   1.591  0.00  0.00    +0.124 A 
ATOM     19  C   UNL A   1       4.862   2.580   0.536  0.00  0.00    -0.000 A 
ATOM     20  C   UNL A   1       4.169   1.476  -0.005  0.00  0.00    +0.018 A 
BRANCH  15  22
ATOM     21  O   UNL A   1       1.076  -0.380   0.433  0.00  0.00    -0.292 OA
ATOM     22  C   UNL A   1       2.177  -0.096  -0.028  0.00  0.00    +0.160 C 
ATOM     23  C   UNL A   1       2.784  -0.899  -1.148  0.00  0.00    +0.091 C 
ENDBRANCH  15  22
BRANCH  18  24
ATOM     24  O   UNL A   1       4.947   4.426   2.006  0.00  0.00    -0.492 OA
BRANCH  24  25
ATOM     25  C   UNL A   1       4.643   4.926   3.307  0.00  0.00    +0.226 C 
ATOM     26  C   UNL A   1       5.457   6.188   3.538  0.00  0.00    +0.048 C 
ENDBRANCH  24  25
ENDBRANCH  18  24
ENDBRANCH   1  19
TORSDOF 7
