REMARK  Name = *****
REMARK  6 active torsions:
REMARK  status: ('A' for Active; 'I' for Inactive)
REMARK    1  A    between atoms: N_2  and  C_4
REMARK    2  A    between atoms: C_7  and  C_10
REMARK    3  A    between atoms: N_11  and  C_12
REMARK    4  A    between atoms: C_18  and  S_21
REMARK    5  A    between atoms: S_21  and  C_22
REMARK    6  A    between atoms: C_22  and  C_23
REMARK                            x       y       z     vdW  Elec       q    Type
REMARK                         _______ _______ _______ _____ _____    ______ ____
ROOT
ATOM      1  C   UNL A   1       5.332  -3.885  -3.165  0.00  0.00    +0.169 A 
ATOM      2  N   UNL A   1       5.932  -3.491  -4.368  0.00  0.00    -0.270 N 
ATOM      3  C   UNL A   1       6.594  -4.629  -4.817  0.00  0.00    +0.197 A 
ATOM      4  N   UNL A   1       6.473  -5.596  -3.939  0.00  0.00    -0.122 NA
ATOM      5  N   UNL A   1       5.697  -5.128  -2.903  0.00  0.00    -0.128 NA
ENDROOT
BRANCH   1   9
ATOM      6  C   UNL A   1       3.065  -1.224  -0.689  0.00  0.00    +0.075 A 
ATOM      7  C   UNL A   1       2.818  -1.264  -2.063  0.00  0.00    +0.029 A 
ATOM      8  C   UNL A   1       3.473  -2.215  -2.854  0.00  0.00    +0.013 A 
ATOM      9  C   UNL A   1       4.448  -3.069  -2.307  0.00  0.00    +0.020 A 
ATOM     10  C   UNL A   1       4.620  -3.070  -0.913  0.00  0.00    +0.013 A 
ATOM     11  C   UNL A   1       3.935  -2.152  -0.101  0.00  0.00    +0.029 A 
BRANCH   6  13
ATOM     12  O   UNL A   1       1.764   0.681  -0.449  0.00  0.00    -0.173 OA
ATOM     13  N   UNL A   1       2.434  -0.182   0.134  0.00  0.00    -0.187 N 
ATOM     14  O   UNL A   1       2.625  -0.220   1.359  0.00  0.00    -0.777 OA
ENDBRANCH   6  13
ENDBRANCH   1   9
BRANCH   2  15
ATOM     15  C   UNL A   1       5.892  -2.195  -4.977  0.00  0.00    +0.051 A 
ATOM     16  C   UNL A   1       5.912  -1.035  -4.178  0.00  0.00    +0.026 A 
ATOM     17  C   UNL A   1       5.749   0.225  -4.757  0.00  0.00    +0.002 A 
ATOM     18  C   UNL A   1       5.650   0.349  -6.137  0.00  0.00    +0.000 A 
ATOM     19  C   UNL A   1       5.685  -0.786  -6.944  0.00  0.00    +0.002 A 
ATOM     20  C   UNL A   1       5.792  -2.054  -6.366  0.00  0.00    +0.026 A 
ENDBRANCH   2  15
BRANCH   3  21
ATOM     21  S   UNL A   1       7.687  -4.643  -6.170  0.00  0.00    -0.076 S 
BRANCH  21  22
ATOM     22  C   UNL A   1       7.834  -6.375  -6.641  0.00  0.00    +0.173 C 
BRANCH  22  23
ATOM     23  C   UNL A   1       6.569  -7.018  -7.201  0.00  0.00    +0.226 C 
ATOM     24  O   UNL A   1       5.463  -6.482  -7.148  0.00  0.00    -0.275 OA
ATOM     25  N   UNL A   1       6.747  -8.257  -7.829  0.00  0.00    -0.296 N 
ATOM     26  C   UNL A   1       8.000  -9.026  -7.870  0.00  0.00    +0.136 C 
ATOM     27  C   UNL A   1       8.155  -9.766  -9.206  0.00  0.00    +0.178 C 
ATOM     28  O   UNL A   1       7.003 -10.569  -9.495  0.00  0.00    -0.377 OA
ATOM     29  C   UNL A   1       5.824  -9.752  -9.570  0.00  0.00    +0.178 C 
ATOM     30  C   UNL A   1       5.570  -9.031  -8.242  0.00  0.00    +0.136 C 
ENDBRANCH  22  23
ENDBRANCH  21  22
ENDBRANCH   3  21
TORSDOF 6
