REMARK  Name = *****
REMARK  11 active torsions:
REMARK  status: ('A' for Active; 'I' for Inactive)
REMARK    1  A    between atoms: N_1  and  C_2
REMARK    2  A    between atoms: C_3  and  C_22
REMARK    3  A    between atoms: C_6  and  S_7
REMARK    4  A    between atoms: S_7  and  C_8
REMARK    5  A    between atoms: C_8  and  C_9
REMARK    6  A    between atoms: N_11  and  C_12
REMARK    7  A    between atoms: C_15  and  C_18
REMARK    8  A    between atoms: C_18  and  O_20
REMARK    9  A    between atoms: O_20  and  C_21
REMARK   10  A    between atoms: C_25  and  N_28
REMARK   11  A    between atoms: C_29  and  C_31
REMARK                            x       y       z     vdW  Elec       q    Type
REMARK                         _______ _______ _______ _____ _____    ______ ____
ROOT
ATOM      1  N   UNL A   1       0.851   0.041  -0.068  0.00  0.00    -0.305 N 
ATOM      2  C   UNL A   1       2.293   0.078  -0.103  0.00  0.00    +0.153 C 
ATOM      3  C   UNL A   1       0.017  -1.063  -0.017  0.00  0.00    +0.165 A 
ATOM      4  N   UNL A   1      -1.234  -0.624  -0.023  0.00  0.00    -0.128 NA
ATOM      5  N   UNL A   1      -1.223   0.753  -0.000  0.00  0.00    -0.122 NA
ATOM      6  C   UNL A   1       0.029   1.134  -0.046  0.00  0.00    +0.192 A 
ENDROOT
BRANCH   3   7
ATOM      7  C   UNL A   1       0.426  -2.469   0.059  0.00  0.00    +0.019 A 
ATOM      8  C   UNL A   1       1.504  -2.854   0.860  0.00  0.00    +0.013 A 
ATOM      9  C   UNL A   1       1.959  -4.173   0.881  0.00  0.00    +0.024 A 
ATOM     10  C   UNL A   1       1.317  -5.166   0.146  0.00  0.00    +0.033 A 
ATOM     11  C   UNL A   1       0.182  -4.811  -0.596  0.00  0.00    +0.024 A 
ATOM     12  C   UNL A   1      -0.258  -3.473  -0.641  0.00  0.00    +0.013 A 
BRANCH  10  13
ATOM     13  N   UNL A   1       1.761  -6.510   0.120  0.00  0.00    -0.286 N 
ATOM     14  C   UNL A   1       2.895  -7.016   0.737  0.00  0.00    +0.214 C 
ATOM     15  O   UNL A   1       3.710  -6.388   1.403  0.00  0.00    -0.276 OA
ATOM     16  C   UNL A   1       3.098  -8.492   0.520  0.00  0.00    +0.109 C 
ATOM     17  H   UNL A   1       1.201  -7.151  -0.427  0.00  0.00    +0.155 HD
ENDBRANCH  10  13
ENDBRANCH   3   7
BRANCH   6  18
ATOM     18  S   UNL A   1       0.603   2.764  -0.027  0.00  0.00    -0.077 S 
BRANCH  18  19
ATOM     19  C   UNL A   1      -0.300   3.439   1.394  0.00  0.00    +0.173 C 
BRANCH  19  20
ATOM     20  C   UNL A   1       0.235   2.855   2.693  0.00  0.00    +0.228 C 
ATOM     21  O   UNL A   1       1.234   3.333   3.225  0.00  0.00    -0.275 OA
ATOM     22  N   UNL A   1      -0.469   1.743   3.135  0.00  0.00    -0.285 N 
ATOM     23  H   UNL A   1      -1.143   1.341   2.487  0.00  0.00    +0.155 HD
BRANCH  22  24
ATOM     24  C   UNL A   1      -0.200   1.001   4.303  0.00  0.00    +0.033 A 
ATOM     25  C   UNL A   1       0.608   1.463   5.346  0.00  0.00    +0.024 A 
ATOM     26  C   UNL A   1       0.885   0.647   6.450  0.00  0.00    +0.017 A 
ATOM     27  C   UNL A   1       0.352  -0.643   6.527  0.00  0.00    +0.059 A 
ATOM     28  C   UNL A   1      -0.492  -1.093   5.505  0.00  0.00    +0.017 A 
ATOM     29  C   UNL A   1      -0.772  -0.270   4.407  0.00  0.00    +0.024 A 
BRANCH  27  30
ATOM     30  C   UNL A   1       0.722  -1.492   7.696  0.00  0.00    +0.339 C 
ATOM     31  O   UNL A   1       1.458  -1.124   8.596  0.00  0.00    -0.245 OA
BRANCH  30  32
ATOM     32  O   UNL A   1       0.143  -2.715   7.595  0.00  0.00    -0.465 OA
ATOM     33  C   UNL A   1       0.482  -3.612   8.652  0.00  0.00    +0.280 C 
ENDBRANCH  30  32
ENDBRANCH  27  30
ENDBRANCH  22  24
ENDBRANCH  19  20
ENDBRANCH  18  19
ENDBRANCH   6  18
TORSDOF 8
