REMARK  Name = *****
REMARK  7 active torsions:
REMARK  status: ('A' for Active; 'I' for Inactive)
REMARK    1  A    between atoms: N_1  and  C_2
REMARK    2  A    between atoms: C_3  and  C_12
REMARK    3  A    between atoms: C_6  and  S_7
REMARK    4  A    between atoms: S_7  and  C_8
REMARK    5  A    between atoms: C_8  and  C_9
REMARK    6  A    between atoms: C_12  and  O_13
REMARK    7  A    between atoms: O_13  and  C_14
REMARK                            x       y       z     vdW  Elec       q    Type
REMARK                         _______ _______ _______ _____ _____    ______ ____
ROOT
ATOM      1  N   UNL A   1      -0.175  -0.225  -1.081  0.00  0.00    -0.306 N 
ATOM      2  C   UNL A   1      -0.183  -0.561  -2.480  0.00  0.00    +0.153 C 
ATOM      3  C   UNL A   1       0.147  -1.032  -0.014  0.00  0.00    +0.172 A 
ATOM      4  N   UNL A   1       0.093  -0.309   1.091  0.00  0.00    -0.130 NA
ATOM      5  N   UNL A   1      -0.277   0.971   0.757  0.00  0.00    -0.122 NA
ATOM      6  C   UNL A   1      -0.465   0.998  -0.540  0.00  0.00    +0.192 A 
ENDROOT
BRANCH   6   7
ATOM      7  S   UNL A   1      -0.992   2.360  -1.462  0.00  0.00    -0.077 S 
BRANCH   7   8
ATOM      8  C   UNL A   1       0.148   3.631  -0.847  0.00  0.00    +0.172 C 
BRANCH   8   9
ATOM      9  C   UNL A   1       1.558   3.326  -1.313  0.00  0.00    +0.221 C 
ATOM     10  O   UNL A   1       1.963   3.547  -2.449  0.00  0.00    -0.275 OA
ATOM     11  N   UNL A   1       2.378   2.755  -0.380  0.00  0.00    -0.329 N 
ATOM     12  H   UNL A   1       1.985   2.268   0.422  0.00  0.00    +0.145 HD
ATOM     13  H   UNL A   1       3.280   2.433  -0.706  0.00  0.00    +0.145 HD
ENDBRANCH   8   9
ENDBRANCH   7   8
ENDBRANCH   6   7
BRANCH   3  14
ATOM     14  C   UNL A   1       0.465  -2.489  -0.083  0.00  0.00    +0.305 C 
BRANCH  14  15
ATOM     15  O   UNL A   1       1.879  -2.603  -0.226  0.00  0.00    -0.482 OA
BRANCH  15  16
ATOM     16  C   UNL A   1       2.363  -3.890  -0.362  0.00  0.00    +0.147 A 
ATOM     17  C   UNL A   1       1.822  -4.975   0.345  0.00  0.00    +0.048 A 
ATOM     18  C   UNL A   1       2.357  -6.251   0.191  0.00  0.00    +0.004 A 
ATOM     19  C   UNL A   1       3.442  -6.445  -0.654  0.00  0.00    +0.010 A 
ATOM     20  C   UNL A   1       4.010  -5.361  -1.342  0.00  0.00    +0.004 A 
ATOM     21  C   UNL A   1       3.481  -4.056  -1.201  0.00  0.00    +0.113 A 
ATOM     22  N   UNL A   1       4.029  -3.010  -1.865  0.00  0.00    -0.251 NA
ATOM     23  C   UNL A   1       5.103  -3.232  -2.655  0.00  0.00    +0.111 A 
ATOM     24  C   UNL A   1       5.675  -4.473  -2.848  0.00  0.00    +0.020 A 
ATOM     25  C   UNL A   1       5.116  -5.553  -2.180  0.00  0.00    +0.012 A 
ENDBRANCH  15  16
ENDBRANCH  14  15
ENDBRANCH   3  14
TORSDOF 6
