REMARK  Name = *****
REMARK  12 active torsions:
REMARK  status: ('A' for Active; 'I' for Inactive)
REMARK    1  A    between atoms: N_1  and  C_2
REMARK    2  A    between atoms: C_8  and  S_22
REMARK    3  A    between atoms: C_11  and  C_12
REMARK    4  A    between atoms: C_14  and  O_20
REMARK    5  A    between atoms: C_15  and  O_18
REMARK    6  A    between atoms: O_18  and  C_19
REMARK    7  A    between atoms: O_20  and  C_21
REMARK    8  A    between atoms: S_22  and  C_23
REMARK    9  A    between atoms: C_23  and  C_24
REMARK   10  A    between atoms: C_24  and  C_26
REMARK   11  A    between atoms: C_29  and  O_32
REMARK   12  A    between atoms: O_32  and  C_33
REMARK                            x       y       z     vdW  Elec       q    Type
REMARK                         _______ _______ _______ _____ _____    ______ ____
ROOT
ATOM      1  N   UNL A   1      -0.319  -1.321   0.050  0.00  0.00    -0.270 N 
ATOM      2  C   UNL A   1       0.940  -0.719   0.019  0.00  0.00    +0.197 A 
ATOM      3  N   UNL A   1       0.825   0.586  -0.092  0.00  0.00    -0.122 NA
ATOM      4  N   UNL A   1      -0.503   0.882  -0.124  0.00  0.00    -0.128 NA
ATOM      5  C   UNL A   1      -1.212  -0.235  -0.061  0.00  0.00    +0.170 A 
ENDROOT
BRANCH   1   6
ATOM      6  C   UNL A   1      -0.627  -2.715   0.199  0.00  0.00    +0.051 A 
ATOM      7  C   UNL A   1      -1.753  -3.125   0.922  0.00  0.00    +0.026 A 
ATOM      8  C   UNL A   1      -2.066  -4.482   1.044  0.00  0.00    +0.002 A 
ATOM      9  C   UNL A   1      -1.229  -5.447   0.491  0.00  0.00    +0.000 A 
ATOM     10  C   UNL A   1      -0.093  -5.057  -0.207  0.00  0.00    +0.002 A 
ATOM     11  C   UNL A   1       0.194  -3.700  -0.374  0.00  0.00    +0.026 A 
ENDBRANCH   1   6
BRANCH   5  12
ATOM     12  C   UNL A   1      -2.688  -0.241  -0.146  0.00  0.00    +0.023 A 
ATOM     13  C   UNL A   1      -3.412   0.801   0.471  0.00  0.00    +0.061 A 
ATOM     14  C   UNL A   1      -4.821   0.844   0.468  0.00  0.00    +0.162 A 
ATOM     15  C   UNL A   1      -5.528  -0.201  -0.148  0.00  0.00    +0.162 A 
ATOM     16  C   UNL A   1      -4.811  -1.212  -0.803  0.00  0.00    +0.050 A 
ATOM     17  C   UNL A   1      -3.413  -1.214  -0.838  0.00  0.00    +0.015 A 
BRANCH  15  18
ATOM     18  O   UNL A   1      -6.881  -0.406  -0.216  0.00  0.00    -0.491 OA
ATOM     19  C   UNL A   1      -7.762   0.569   0.322  0.00  0.00    +0.277 C 
ENDBRANCH  15  18
BRANCH  14  20
ATOM     20  O   UNL A   1      -5.540   1.853   1.047  0.00  0.00    -0.491 OA
ATOM     21  C   UNL A   1      -4.840   2.969   1.581  0.00  0.00    +0.277 C 
ENDBRANCH  14  20
ENDBRANCH   5  12
BRANCH   2  22
ATOM     22  S   UNL A   1       2.460  -1.540   0.203  0.00  0.00    -0.078 S 
BRANCH  22  23
ATOM     23  C   UNL A   1       3.556  -0.275   0.881  0.00  0.00    +0.157 C 
BRANCH  23  24
ATOM     24  C   UNL A   1       3.288   0.035   2.343  0.00  0.00    +0.173 C 
ATOM     25  O   UNL A   1       2.296  -0.360   2.955  0.00  0.00    -0.291 OA
BRANCH  24  26
ATOM     26  C   UNL A   1       4.305   0.855   3.081  0.00  0.00    +0.018 A 
ATOM     27  C   UNL A   1       5.493   1.303   2.489  0.00  0.00    +0.015 A 
ATOM     28  C   UNL A   1       6.424   2.048   3.229  0.00  0.00    +0.046 A 
ATOM     29  C   UNL A   1       6.175   2.358   4.566  0.00  0.00    +0.120 A 
ATOM     30  C   UNL A   1       4.989   1.917   5.156  0.00  0.00    +0.046 A 
ATOM     31  C   UNL A   1       4.061   1.171   4.423  0.00  0.00    +0.015 A 
BRANCH  29  32
ATOM     32  O   UNL A   1       6.997   3.070   5.393  0.00  0.00    -0.495 OA
ATOM     33  C   UNL A   1       8.209   3.561   4.834  0.00  0.00    +0.277 C 
ENDBRANCH  29  32
ENDBRANCH  24  26
ENDBRANCH  23  24
ENDBRANCH  22  23
ENDBRANCH   2  22
TORSDOF 9
