REMARK  Name = *****
REMARK  7 active torsions:
REMARK  status: ('A' for Active; 'I' for Inactive)
REMARK    1  A    between atoms: N_1  and  C_2
REMARK    2  A    between atoms: N_8  and  C_31
REMARK    3  A    between atoms: C_9  and  C_30
REMARK    4  A    between atoms: C_10  and  N_13
REMARK    5  A    between atoms: C_14  and  C_16
REMARK    6  A    between atoms: N_17  and  S_21
REMARK    7  A    between atoms: S_21  and  C_24
REMARK                            x       y       z     vdW  Elec       q    Type
REMARK                         _______ _______ _______ _____ _____    ______ ____
ROOT
ATOM      1  N   UNL A   1      -0.425   2.583  -0.283  0.00  0.00    -0.278 N 
ATOM      2  C   UNL A   1       0.178   3.755  -0.705  0.00  0.00    +0.236 C 
ATOM      3  O   UNL A   1       1.047   3.760  -1.580  0.00  0.00    -0.274 OA
ATOM      4  H   UNL A   1      -1.270   2.624   0.271  0.00  0.00    +0.155 HD
ENDROOT
BRANCH   1   8
ATOM      5  N   UNL A   1       0.810  -0.719  -1.194  0.00  0.00    -0.216 N 
ATOM      6  N   UNL A   1      -0.303  -0.561  -2.075  0.00  0.00    -0.282 N 
ATOM      7  C   UNL A   1      -0.812   0.724  -1.832  0.00  0.00    +0.059 A 
ATOM      8  C   UNL A   1      -0.149   1.367  -0.857  0.00  0.00    +0.121 A 
ATOM      9  C   UNL A   1       0.897   0.411  -0.360  0.00  0.00    +0.293 A 
ATOM     10  O   UNL A   1       1.567   0.598   0.645  0.00  0.00    -0.264 OA
ATOM     11  C   UNL A   1      -1.915   1.299  -2.660  0.00  0.00    +0.067 C 
ATOM     12  C   UNL A   1      -0.089  -1.019  -3.455  0.00  0.00    +0.171 C 
BRANCH   5  13
ATOM     13  C   UNL A   1       1.345  -2.001  -0.909  0.00  0.00    +0.067 A 
ATOM     14  C   UNL A   1       0.608  -3.162  -1.195  0.00  0.00    +0.028 A 
ATOM     15  C   UNL A   1       1.148  -4.433  -0.994  0.00  0.00    +0.002 A 
ATOM     16  C   UNL A   1       2.439  -4.563  -0.495  0.00  0.00    +0.000 A 
ATOM     17  C   UNL A   1       3.183  -3.423  -0.191  0.00  0.00    +0.002 A 
ATOM     18  C   UNL A   1       2.635  -2.147  -0.386  0.00  0.00    +0.028 A 
ENDBRANCH   5  13
ENDBRANCH   1   8
BRANCH   2  19
ATOM     19  C   UNL A   1      -0.182   5.040   0.049  0.00  0.00    +0.166 C 
ATOM     20  N   UNL A   1      -0.569   6.317  -0.654  0.00  0.00    -0.165 NA
ATOM     21  C   UNL A   1      -1.030   7.236   0.445  0.00  0.00    +0.110 C 
ATOM     22  C   UNL A   1      -1.431   6.349   1.619  0.00  0.00    +0.019 C 
ATOM     23  C   UNL A   1      -1.251   4.922   1.135  0.00  0.00    +0.031 C 
BRANCH  20  24
ATOM     24  S   UNL A   1      -1.666   6.238  -1.963  0.00  0.00    +0.061 S 
ATOM     25  O   UNL A   1      -2.514   5.084  -1.737  0.00  0.00    -0.153 OA
ATOM     26  O   UNL A   1      -2.238   7.551  -2.144  0.00  0.00    -0.153 OA
BRANCH  24  27
ATOM     27  C   UNL A   1      -0.755   5.947  -3.450  0.00  0.00    +0.105 A 
ATOM     28  C   UNL A   1       0.636   5.958  -3.484  0.00  0.00    +0.028 A 
ATOM     29  C   UNL A   1       1.290   5.730  -4.695  0.00  0.00    +0.002 A 
ATOM     30  C   UNL A   1       0.556   5.539  -5.868  0.00  0.00    +0.000 A 
ATOM     31  C   UNL A   1      -0.838   5.579  -5.840  0.00  0.00    +0.002 A 
ATOM     32  C   UNL A   1      -1.498   5.782  -4.630  0.00  0.00    +0.028 A 
ENDBRANCH  24  27
ENDBRANCH  20  24
ENDBRANCH   2  19
TORSDOF 5
