REMARK  Name = *****
REMARK  7 active torsions:
REMARK  status: ('A' for Active; 'I' for Inactive)
REMARK    1  A    between atoms: C_2  and  C_4
REMARK    2  A    between atoms: C_7  and  N_13
REMARK    3  A    between atoms: C_8  and  N_10
REMARK    4  A    between atoms: N_13  and  C_14
REMARK    5  A    between atoms: C_14  and  C_15
REMARK    6  A    between atoms: C_15  and  C_16
REMARK    7  A    between atoms: C_16  and  N_17
REMARK                            x       y       z     vdW  Elec       q    Type
REMARK                         _______ _______ _______ _____ _____    ______ ____
ROOT
ATOM      1  C   UNL A   1       3.007   1.225   0.200  0.00  0.00    +0.039 A 
ATOM      2  C   UNL A   1       2.612   2.099   1.211  0.00  0.00    +0.015 A 
ATOM      3  C   UNL A   1       3.347   3.260   1.464  0.00  0.00    +0.026 A 
ATOM      4  C   UNL A   1       4.507   3.581   0.739  0.00  0.00    +0.054 A 
ATOM      5  C   UNL A   1       4.891   2.676  -0.282  0.00  0.00    +0.097 A 
ATOM      6  C   UNL A   1       4.138   1.517  -0.561  0.00  0.00    +0.043 A 
ENDROOT
BRANCH   1   8
ATOM      7  O   UNL A   1       1.006  -0.037   0.266  0.00  0.00    -0.270 OA
ATOM      8  C   UNL A   1       2.193   0.004  -0.035  0.00  0.00    +0.242 C 
ATOM      9  N   UNL A   1       2.836  -1.081  -0.551  0.00  0.00    -0.325 N 
ATOM     10  H   UNL A   1       2.297  -1.936  -0.605  0.00  0.00    +0.145 HD
ATOM     11  H   UNL A   1       3.842  -1.162  -0.589  0.00  0.00    +0.145 HD
ENDBRANCH   1   8
BRANCH   5  12
ATOM     12  N   UNL A   1       6.116   2.889  -1.081  0.00  0.00    -0.185 N 
ATOM     13  O   UNL A   1       6.912   3.774  -0.728  0.00  0.00    -0.172 OA
ATOM     14  O   UNL A   1       6.309   2.133  -2.045  0.00  0.00    -0.777 OA
ENDBRANCH   5  12
BRANCH   4  15
ATOM     15  N   UNL A   1       5.154   4.792   0.942  0.00  0.00    -0.342 N 
ATOM     16  H   UNL A   1       6.128   4.825   0.625  0.00  0.00    +0.146 HD
BRANCH  15  17
ATOM     17  C   UNL A   1       4.749   5.789   1.918  0.00  0.00    +0.103 C 
BRANCH  17  18
ATOM     18  C   UNL A   1       5.710   6.976   1.900  0.00  0.00    +0.034 C 
BRANCH  18  19
ATOM     19  C   UNL A   1       5.732   7.691   0.546  0.00  0.00    +0.086 C 
BRANCH  19  20
ATOM     20  N   UNL A   1       6.644   8.827   0.421  0.00  0.00    -0.298 NA
ATOM     21  C   UNL A   1       8.056   8.547   0.721  0.00  0.00    +0.112 C 
ATOM     22  C   UNL A   1       8.503   8.882   2.155  0.00  0.00    +0.175 C 
ATOM     23  O   UNL A   1       8.119  10.208   2.533  0.00  0.00    -0.377 OA
ATOM     24  C   UNL A   1       6.697  10.350   2.451  0.00  0.00    +0.175 C 
ATOM     25  C   UNL A   1       6.188  10.083   1.027  0.00  0.00    +0.112 C 
ENDBRANCH  19  20
ENDBRANCH  18  19
ENDBRANCH  17  18
ENDBRANCH  15  17
ENDBRANCH   4  15
TORSDOF 7
